@<TRIPOS>MOLECULE
Row125
57   60    1
SMALL
USER_CHARGES


@<TRIPOS>ATOM
      1 C1        127.0309  132.9697  177.3083 C.3       1 UNK         0.1100 
      2 O2        128.0786  132.0245  177.4813 O.3       1 UNK        -0.2850 
      3 C3        127.8177  130.9269  178.2757 C.ar      1 UNK         0.0850 
      4 C4        126.7826  130.9046  179.2446 C.ar      1 UNK        -0.1150 
      5 C5        126.5554  129.7583  180.0240 C.ar      1 UNK        -0.1150 
      6 C6        127.3564  128.6211  179.8401 C.ar      1 UNK        -0.1150 
      7 C7        128.3881  128.6273  178.8849 C.ar      1 UNK        -0.1150 
      8 C8        128.6345  129.7833  178.1011 C.ar      1 UNK         0.0850 
      9 O9        129.6427  129.8701  177.1634 O.3       1 UNK        -0.2850 
     10 C10       130.2853  128.6774  176.7291 C.3       1 UNK         0.3644 
     11 C11       131.4449  129.0933  175.8192 C.3       1 UNK        -0.0544 
     12 N12       130.9690  129.8498  174.6401 N.4       1 UNK        -0.2000 
     13 C13       132.0411  130.5535  173.9037 C.3       1 UNK         0.1700 
     14 C14       131.5423  131.7824  173.1105 C.3       1 UNK         0.2050 
     15 O15       130.6228  131.4497  172.0880 O.3       1 UNK        -0.6830 
     16 C16       132.7277  132.5032  172.4615 C.3       1 UNK         0.1400 
     17 O17       133.4922  133.0497  173.5240 O.3       1 UNK        -0.2850 
     18 C18       134.7780  133.4708  173.2807 C.ar      1 UNK         0.0850 
     19 C19       135.3904  133.4404  172.0019 C.ar      1 UNK        -0.1150 
     20 C20       136.7232  133.8559  171.8401 C.ar      1 UNK        -0.1150 
     21 C21       137.4554  134.3131  172.9482 C.ar      1 UNK        -0.1150 
     22 C22       136.8443  134.3747  174.2122 C.ar      1 UNK        -0.0235 
     23 N23       137.3579  134.7968  175.4299 N.pl3     1 UNK        -0.2390 
     24 H24       138.3270  135.0497  175.6249 H         1 UNK         0.3170 
     25 C25       136.3686  134.7159  176.3939 C.ar      1 UNK        -0.0235 
     26 C26       136.4135  135.0609  177.7570 C.ar      1 UNK        -0.1150 
     27 C27       135.2690  134.9110  178.5581 C.ar      1 UNK        -0.1150 
     28 C28       134.0933  134.3856  177.9932 C.ar      1 UNK        -0.1150 
     29 C29       134.0714  133.9906  176.6401 C.ar      1 UNK        -0.1150 
     30 C30       135.1929  134.1792  175.8001 C.ar      1 UNK        -0.0155 
     31 C31       135.4945  133.9609  174.4015 C.ar      1 UNK        -0.0155 
     32 H32       127.3579  133.7625  176.6401 H         1 UNK         0.0300 
     33 H33       126.1579  132.4952  176.8604 H         1 UNK         0.0300 
     34 H34       126.7383  133.4497  178.2400 H         1 UNK         0.0300 
     35 H35       126.1491  131.7589  179.4214 H         1 UNK         0.1150 
     36 H36       125.7675  129.7527  180.7641 H         1 UNK         0.1150 
     37 H37       127.1804  127.7400  180.4399 H         1 UNK         0.1150 
     38 H38       128.9775  127.7288  178.7881 H         1 UNK         0.1150 
     39 H39       130.7014  128.1215  177.5698 H         1 UNK         0.0300 
     40 H40       129.5823  128.0305  176.2020 H         1 UNK         0.0300 
     41 H41       132.1358  129.7032  176.4035 H         1 UNK         0.0600 
     42 H42       131.9997  128.2162  175.4828 H         1 UNK         0.0600 
     43 H43       130.5479  129.2031  173.9682 H         1 UNK         0.3100 
     44 H44       132.7867  130.8963  174.6224 H         1 UNK         0.0600 
     45 H45       132.5576  129.8497  173.2519 H         1 UNK         0.0600 
     46 H46       131.0367  132.4742  173.7862 H         1 UNK         0.0600 
     47 H47       130.9580  130.7156  171.5732 H         1 UNK         0.4180 
     48 H48       133.2950  131.7879  171.8633 H         1 UNK         0.0300 
     49 H49       132.3901  133.3098  171.8085 H         1 UNK         0.0300 
     50 H50       134.8638  133.0969  171.1250 H         1 UNK         0.1150 
     51 H51       137.1897  133.8239  170.8662 H         1 UNK         0.1150 
     52 H52       138.4812  134.6311  172.8216 H         1 UNK         0.1150 
     53 H53       137.3255  135.4497  178.1801 H         1 UNK         0.1150 
     54 H54       135.2986  135.1836  179.6035 H         1 UNK         0.1150 
     55 H55       133.2174  134.2496  178.6106 H         1 UNK         0.1150 
     56 H56       133.1843  133.5297  176.2401 H         1 UNK         0.1150 
     57 H57       130.2700  130.5178  174.9370 H         1 UNK         0.3100 
@<TRIPOS>BOND
     1    1    2 1    
     2    1   32 1    
     3    1   33 1    
     4    1   34 1    
     5    2    3 1    
     6    3    8 ar   
     7    3    4 ar   
     8    4    5 ar   
     9    4   35 1    
    10    5    6 ar   
    11    5   36 1    
    12    6    7 ar   
    13    6   37 1    
    14    7    8 ar   
    15    7   38 1    
    16    8    9 1    
    17    9   10 1    
    18   10   11 1    
    19   10   39 1    
    20   10   40 1    
    21   11   12 1    
    22   11   41 1    
    23   11   42 1    
    24   12   13 1    
    25   12   43 1    
    26   12   57 1    
    27   13   14 1    
    28   13   44 1    
    29   13   45 1    
    30   14   15 1    
    31   14   16 1    
    32   14   46 1    
    33   15   47 1    
    34   16   17 1    
    35   16   48 1    
    36   16   49 1    
    37   17   18 1    
    38   18   31 ar   
    39   18   19 ar   
    40   19   20 ar   
    41   19   50 1    
    42   20   21 ar   
    43   20   51 1    
    44   21   22 ar   
    45   21   52 1    
    46   22   31 ar   
    47   22   23 ar   
    48   23   24 1    
    49   23   25 ar   
    50   25   30 ar   
    51   25   26 ar   
    52   26   27 ar   
    53   26   53 1    
    54   27   28 ar   
    55   27   54 1    
    56   28   29 ar   
    57   28   55 1    
    58   29   30 ar   
    59   29   56 1    
    60   30   31 ar   
@<TRIPOS>SUBSTRUCTURE
     1 UNK         1 GROUP             0       ****    0 ROOT    
@<TRIPOS>MOLECULE
Row567
78   85    1
SMALL
USER_CHARGES


@<TRIPOS>ATOM
      1 C1        132.4744  131.9373  171.4402 C.3       1 UNK         0.0300 
      2 N2        132.8509  131.7857  172.8282 N.3       1 UNK        -0.6300 
      3 C3        131.6403  131.5484  173.6266 C.3       1 UNK         0.0900 
      4 C4        132.0353  131.1059  175.0461 C.3       1 UNK        -0.0600 
      5 H5        132.5331  130.1382  174.9590 H         1 UNK         0.0600 
      6 C6        130.8066  130.9229  175.9543 C.2       1 UNK         0.5000 
      7 O7        130.0943  131.8780  176.2609 O.2       1 UNK        -0.5000 
      8 N8        130.6232  129.6678  176.3869 N.am      1 UNK        -0.4665 
      9 C9        129.4838  129.1253  177.0953 C.3       1 UNK         0.3665 
     10 C10       129.8377  127.6534  177.3385 C.3       1 UNK        -0.1800 
     11 O11       128.3138  129.1872  176.3159 O.3       1 UNK        -0.4000 
     12 C12       127.2863  129.8256  177.0391 C.3       1 UNK         0.4872 
     13 O13       127.1081  131.1687  176.6415 O.3       1 UNK        -0.5827 
     14 C14       125.9886  128.9942  176.8968 C.3       1 UNK         0.0100 
     15 H15       126.2922  127.9503  176.8721 H         1 UNK         0.0600 
     16 C16       125.1405  129.2697  175.6566 C.3       1 UNK        -0.1200 
     17 C17       123.8170  128.6164  176.0382 C.3       1 UNK        -0.1200 
     18 C18       123.7215  128.7556  177.5673 C.3       1 UNK        -0.0500 
     19 N19       125.0750  129.0529  178.0276 N.am      1 UNK        -0.1400 
     20 C20       125.3971  129.4460  179.2759 C.2       1 UNK         0.5000 
     21 O21       124.5854  129.4381  180.1972 O.2       1 UNK        -0.5000 
     22 C22       126.8317  129.9417  179.5432 C.3       1 UNK         0.0100 
     23 H23       127.1999  129.2471  180.3019 H         1 UNK         0.0600 
     24 C24       126.9343  131.3656  180.1395 C.3       1 UNK        -0.0050 
     25 C25       127.5555  131.4619  181.5268 C.ar      1 UNK        -0.1150 
     26 C26       126.7610  131.2152  182.6584 C.ar      1 UNK        -0.1150 
     27 C27       127.2587  131.4472  183.9516 C.ar      1 UNK        -0.1150 
     28 C28       128.5706  131.9077  184.1195 C.ar      1 UNK        -0.1150 
     29 C29       129.3983  132.0919  182.9974 C.ar      1 UNK        -0.1150 
     30 C30       128.8981  131.8486  181.7046 C.ar      1 UNK        -0.1150 
     31 N31       127.7342  129.7982  178.3978 N.am      1 UNK        -0.1925 
     32 C32       129.0482  129.6861  178.4433 C.2       1 UNK         0.5000 
     33 O33       129.7581  129.8212  179.4336 O.2       1 UNK        -0.5000 
     34 C34       133.0856  132.0411  175.5960 C.2       1 UNK        -0.1150 
     35 C35       133.7957  132.8920  174.8379 C.2       1 UNK         0.0000 
     36 C36       134.7974  133.7969  175.4041 C.ar      1 UNK        -0.0544 
     37 C37       134.8561  134.2495  176.7428 C.ar      1 UNK        -0.2222 
     38 C38       135.9269  135.0491  177.1815 C.ar      1 UNK        -0.0888 
     39 C39       136.9404  135.4016  176.2731 C.ar      1 UNK        -0.3541 
     40 C40       136.8975  134.9580  174.9642 C.ar      1 UNK         0.2860 
     41 N41       137.7506  135.1175  173.9081 N.pl3     1 UNK        -0.4786 
     42 H42       138.6239  135.6225  173.9381 H         1 UNK         0.3577 
     43 C43       137.2580  134.4769  172.7838 C.ar      1 UNK        -0.1072 
     44 C44       136.0631  133.9358  173.1741 C.ar      1 UNK        -0.1749 
     45 C45       135.8292  134.1875  174.5423 C.ar      1 UNK         0.1233 
     46 C46       134.9598  133.1291  172.5231 C.3       1 UNK        -0.0641 
     47 C47       133.6207  132.9387  173.3174 C.3       1 UNK         0.1500 
     48 H48       133.0339  133.8398  173.1366 H         1 UNK         0.0600 
     49 H49       131.9148  131.0526  171.1417 H         1 UNK         0.0600 
     50 H50       131.8500  132.8179  171.2699 H         1 UNK         0.0600 
     51 H51       133.3588  131.9885  170.8064 H         1 UNK         0.0600 
     52 H52       131.0410  130.7573  173.1712 H         1 UNK         0.0600 
     53 H53       131.0241  132.4511  173.6480 H         1 UNK         0.0600 
     54 H54       131.2326  128.9706  175.9867 H         1 UNK         0.3000 
     55 H55       130.7252  127.5703  177.9677 H         1 UNK         0.0600 
     56 H56       129.0112  127.1489  177.8381 H         1 UNK         0.0600 
     57 H57       130.0510  127.1575  176.3898 H         1 UNK         0.0600 
     58 H58       127.3459  131.2632  175.7157 H         1 UNK         0.4180 
     59 H59       124.9833  130.3384  175.5068 H         1 UNK         0.0600 
     60 H60       125.5738  128.8525  174.7476 H         1 UNK         0.0600 
     61 H61       123.8463  127.5590  175.7723 H         1 UNK         0.0600 
     62 H62       122.9667  129.0648  175.5236 H         1 UNK         0.0600 
     63 H63       123.3376  127.8508  178.0408 H         1 UNK         0.0600 
     64 H64       123.0595  129.5798  177.8373 H         1 UNK         0.0600 
     65 H65       127.4881  132.0206  179.4636 H         1 UNK         0.0600 
     66 H66       125.9425  131.8174  180.1966 H         1 UNK         0.0600 
     67 H67       125.7560  130.8653  182.5248 H         1 UNK         0.1150 
     68 H68       126.6336  131.2667  184.8136 H         1 UNK         0.1150 
     69 H69       128.9531  132.0890  185.1092 H         1 UNK         0.1150 
     70 H70       130.4179  132.4192  183.1270 H         1 UNK         0.1150 
     71 H71       129.5486  131.9946  180.8563 H         1 UNK         0.1150 
     72 H72       133.2615  131.9854  176.6405 H         1 UNK         0.1150 
     73 H73       134.0882  133.9632  177.4471 H         1 UNK         0.1489 
     74 H74       135.9713  135.3856  178.2081 H         1 UNK         0.1359 
     75 H75       137.7579  136.0153  176.6108 H         1 UNK         0.1796 
     76 H76       137.7786  134.4642  171.8383 H         1 UNK         0.1929 
     77 H77       134.7196  133.5961  171.5680 H         1 UNK         0.0600 
     78 H78       135.3737  132.1651  172.2497 H         1 UNK         0.0600 
@<TRIPOS>BOND
     1    1    2 1    
     2    1   49 1    
     3    1   50 1    
     4    1   51 1    
     5    2   47 1    
     6    2    3 1    
     7    3    4 1    
     8    3   52 1    
     9    3   53 1    
    10    4    5 1    
    11    4    6 1    
    12    4   34 1    
    13    6    7 2    
    14    6    8 am   BACKBONE|DICT|INTERRES
    15    8    9 1    
    16    8   54 1    
    17    9   32 1    
    18    9   10 1    
    19    9   11 1    
    20   10   55 1    
    21   10   56 1    
    22   10   57 1    
    23   11   12 1    
    24   12   31 1    
    25   12   13 1    
    26   12   14 1    
    27   13   58 1    
    28   14   15 1    
    29   14   19 1    
    30   14   16 1    
    31   16   17 1    
    32   16   59 1    
    33   16   60 1    
    34   17   18 1    
    35   17   61 1    
    36   17   62 1    
    37   18   19 1    
    38   18   63 1    
    39   18   64 1    
    40   19   20 am   BACKBONE|DICT|INTERRES
    41   20   21 2    
    42   20   22 1    
    43   22   23 1    
    44   22   24 1    
    45   22   31 1    
    46   24   25 1    
    47   24   65 1    
    48   24   66 1    
    49   25   30 ar   
    50   25   26 ar   
    51   26   27 ar   
    52   26   67 1    
    53   27   28 ar   
    54   27   68 1    
    55   28   29 ar   
    56   28   69 1    
    57   29   30 ar   
    58   29   70 1    
    59   30   71 1    
    60   31   32 am   BACKBONE|DICT|INTERRES
    61   32   33 2    
    62   34   35 2    
    63   34   72 1    
    64   35   47 1    
    65   35   36 1    
    66   36   45 ar   
    67   36   37 ar   
    68   37   38 ar   
    69   37   73 1    
    70   38   39 ar   
    71   38   74 1    
    72   39   40 ar   
    73   39   75 1    
    74   40   45 ar   
    75   40   41 ar   
    76   41   42 1    
    77   41   43 ar   
    78   43   44 ar   
    79   43   76 1    
    80   44   45 ar   
    81   44   46 1    
    82   46   47 1    
    83   46   77 1    
    84   46   78 1    
    85   47   48 1    
@<TRIPOS>SUBSTRUCTURE
     1 UNK         1 GROUP             0       ****    0 ROOT    
@<TRIPOS>MOLECULE
Row502
58   61    1
SMALL
USER_CHARGES


@<TRIPOS>ATOM
      1 C1        126.3829  132.8356  178.2214 C.3       1 UNK        -0.1800 
      2 C2        126.8781  131.8925  179.3254 C.3       1 UNK        -0.0050 
      3 C3        127.8607  130.8772  178.7631 C.ar      1 UNK        -0.1150 
      4 C4        129.0676  131.3741  178.2153 C.ar      1 UNK        -0.1150 
      5 C5        129.9324  130.4918  177.5614 C.ar      1 UNK        -0.1150 
      6 C6        129.6158  129.1523  177.4210 C.ar      1 UNK        -0.1150 
      7 C7        128.4652  128.6143  178.0188 C.ar      1 UNK        -0.1150 
      8 C8        127.5830  129.4786  178.7092 C.ar      1 UNK        -0.1150 
      9 C9        126.3464  128.8654  179.3458 C.3       1 UNK        -0.0050 
     10 C10       125.1533  128.8430  178.3830 C.3       1 UNK        -0.1800 
     11 C11       130.6082  128.4400  176.5481 C.3       1 UNK        -0.0050 
     12 C12       131.5808  129.5603  176.0870 C.3       1 UNK         0.2300 
     13 N13       131.4460  129.8486  174.6392 N.4       1 UNK        -0.2000 
     14 C14       132.6384  130.4797  174.0246 C.3       1 UNK         0.1700 
     15 C15       132.3603  131.9003  173.4947 C.3       1 UNK         0.3200 
     16 H16       131.8315  132.4940  174.2366 H         1 UNK         0.0600 
     17 O17       131.4737  131.7959  172.3924 O.3       1 UNK        -0.6830 
     18 C18       133.6746  132.6231  173.1684 C.ar      1 UNK        -0.1150 
     19 C19       134.1601  132.6369  171.8409 C.ar      1 UNK        -0.1150 
     20 C20       135.3998  133.2274  171.5266 C.ar      1 UNK        -0.1150 
     21 C21       136.1596  133.8494  172.5322 C.ar      1 UNK         0.1500 
     22 O22       137.3577  134.4311  172.2447 O.3       1 UNK        -0.5850 
     23 C23       135.6780  133.8709  173.8519 C.ar      1 UNK         0.0850 
     24 N24       136.4354  134.5263  174.8607 N.pl3     1 UNK        -0.3850 
     25 H25       137.2968  134.9617  174.5575 H         1 UNK         0.3000 
     26 C26       136.0713  134.6510  176.1523 C.ar      1 UNK         0.5567 
     27 O27       136.7302  135.3227  176.9413 O.2       1 UNK        -0.5000 
     28 C28       134.8345  133.9636  176.5171 C.ar      1 UNK        -0.1717 
     29 C29       134.0943  133.2983  175.6080 C.ar      1 UNK        -0.1150 
     30 C30       134.4567  133.2452  174.1826 C.ar      1 UNK         0.0000 
     31 C31       131.2193  130.8392  176.8844 C.3       1 UNK        -0.0050 
     32 H32       125.7426  133.6060  178.6384 H         1 UNK         0.0600 
     33 H33       127.2021  133.3498  177.7218 H         1 UNK         0.0600 
     34 H34       125.8220  132.2772  177.4705 H         1 UNK         0.0600 
     35 H35       126.0128  131.4323  179.7926 H         1 UNK         0.0600 
     36 H36       127.3674  132.4538  180.1208 H         1 UNK         0.0600 
     37 H37       129.2995  132.4278  178.2405 H         1 UNK         0.1150 
     38 H38       128.2462  127.5601  177.9297 H         1 UNK         0.1150 
     39 H39       126.5883  127.8498  179.6503 H         1 UNK         0.0600 
     40 H40       126.0904  129.3693  180.2771 H         1 UNK         0.0600 
     41 H41       124.2728  128.4156  178.8639 H         1 UNK         0.0600 
     42 H42       124.8954  129.8483  178.0500 H         1 UNK         0.0600 
     43 H43       125.3765  128.2507  177.4948 H         1 UNK         0.0600 
     44 H44       130.1081  127.9392  175.7161 H         1 UNK         0.0600 
     45 H45       131.1253  127.6847  177.1390 H         1 UNK         0.0600 
     46 H46       132.5999  129.2393  176.3029 H         1 UNK         0.0600 
     47 H47       130.6417  130.4445  174.4956 H         1 UNK         0.3100 
     48 H48       133.0031  129.8427  173.2181 H         1 UNK         0.0600 
     49 H49       133.4459  130.5226  174.7533 H         1 UNK         0.0600 
     50 H50       131.7570  131.0867  171.8217 H         1 UNK         0.4180 
     51 H51       133.6033  132.1588  171.0471 H         1 UNK         0.1150 
     52 H52       135.7631  133.2006  170.5108 H         1 UNK         0.1150 
     53 H53       137.7090  134.2434  171.3843 H         1 UNK         0.4350 
     54 H54       134.5334  133.9713  177.5524 H         1 UNK         0.1150 
     55 H55       133.2104  132.7829  175.9421 H         1 UNK         0.1150 
     56 H56       131.9754  131.0594  177.6362 H         1 UNK         0.0600 
     57 H57       131.0817  131.7268  176.2673 H         1 UNK         0.0600 
     58 H58       131.2433  128.9975  174.1180 H         1 UNK         0.3100 
@<TRIPOS>BOND
     1    1    2 1    
     2    1   32 1    
     3    1   33 1    
     4    1   34 1    
     5    2    3 1    
     6    2   35 1    
     7    2   36 1    
     8    3    8 ar   
     9    3    4 ar   
    10    4    5 ar   
    11    4   37 1    
    12    5   31 1    
    13    5    6 ar   
    14    6    7 ar   
    15    6   11 1    
    16    7    8 ar   
    17    7   38 1    
    18    8    9 1    
    19    9   10 1    
    20    9   39 1    
    21    9   40 1    
    22   10   41 1    
    23   10   42 1    
    24   10   43 1    
    25   11   12 1    
    26   11   44 1    
    27   11   45 1    
    28   12   13 1    
    29   12   31 1    
    30   12   46 1    
    31   13   14 1    
    32   13   47 1    
    33   13   58 1    
    34   14   15 1    
    35   14   48 1    
    36   14   49 1    
    37   15   16 1    
    38   15   17 1    
    39   15   18 1    
    40   17   50 1    
    41   18   30 ar   
    42   18   19 ar   
    43   19   20 ar   
    44   19   51 1    
    45   20   21 ar   
    46   20   52 1    
    47   21   22 1    
    48   21   23 ar   
    49   22   53 1    
    50   23   30 ar   
    51   23   24 ar   
    52   24   25 1    
    53   24   26 ar   
    54   26   27 2    
    55   26   28 ar   
    56   28   29 ar   
    57   28   54 1    
    58   29   30 ar   
    59   29   55 1    
    60   31   56 1    
    61   31   57 1    
@<TRIPOS>SUBSTRUCTURE
     1 UNK         1 GROUP             0       ****    0 ROOT    
@<TRIPOS>MOLECULE
Row645
58   61    1
SMALL
USER_CHARGES


@<TRIPOS>ATOM
      1 C1        126.3829  132.8356  178.2214 C.3       1 UNK        -0.1800 
      2 C2        126.8781  131.8925  179.3254 C.3       1 UNK        -0.0050 
      3 C3        127.8607  130.8772  178.7631 C.ar      1 UNK        -0.1150 
      4 C4        129.0676  131.3741  178.2153 C.ar      1 UNK        -0.1150 
      5 C5        129.9324  130.4918  177.5614 C.ar      1 UNK        -0.1150 
      6 C6        129.6158  129.1523  177.4210 C.ar      1 UNK        -0.1150 
      7 C7        128.4652  128.6143  178.0188 C.ar      1 UNK        -0.1150 
      8 C8        127.5830  129.4786  178.7092 C.ar      1 UNK        -0.1150 
      9 C9        126.3464  128.8654  179.3458 C.3       1 UNK        -0.0050 
     10 C10       125.1533  128.8430  178.3830 C.3       1 UNK        -0.1800 
     11 C11       130.6082  128.4400  176.5481 C.3       1 UNK        -0.0050 
     12 C12       131.5808  129.5603  176.0870 C.3       1 UNK         0.2300 
     13 N13       131.4460  129.8486  174.6392 N.4       1 UNK        -0.2000 
     14 C14       132.6384  130.4797  174.0246 C.3       1 UNK         0.1700 
     15 C15       132.3603  131.9003  173.4947 C.3       1 UNK         0.3200 
     16 H16       131.8315  132.4940  174.2366 H         1 UNK         0.0600 
     17 O17       131.4737  131.7959  172.3924 O.3       1 UNK        -0.6830 
     18 C18       133.6746  132.6231  173.1684 C.ar      1 UNK        -0.1150 
     19 C19       134.1601  132.6369  171.8409 C.ar      1 UNK        -0.1150 
     20 C20       135.3998  133.2274  171.5266 C.ar      1 UNK        -0.1150 
     21 C21       136.1596  133.8494  172.5322 C.ar      1 UNK         0.1500 
     22 O22       137.3577  134.4311  172.2447 O.3       1 UNK        -0.5850 
     23 C23       135.6780  133.8709  173.8519 C.ar      1 UNK         0.0850 
     24 N24       136.4354  134.5263  174.8607 N.pl3     1 UNK        -0.3850 
     25 H25       137.2968  134.9617  174.5575 H         1 UNK         0.3000 
     26 C26       136.0713  134.6510  176.1523 C.ar      1 UNK         0.5567 
     27 O27       136.7302  135.3227  176.9413 O.2       1 UNK        -0.5000 
     28 C28       134.8345  133.9636  176.5171 C.ar      1 UNK        -0.1717 
     29 C29       134.0943  133.2983  175.6080 C.ar      1 UNK        -0.1150 
     30 C30       134.4567  133.2452  174.1826 C.ar      1 UNK         0.0000 
     31 C31       131.2193  130.8392  176.8844 C.3       1 UNK        -0.0050 
     32 H32       125.7426  133.6060  178.6384 H         1 UNK         0.0600 
     33 H33       127.2021  133.3498  177.7218 H         1 UNK         0.0600 
     34 H34       125.8220  132.2772  177.4705 H         1 UNK         0.0600 
     35 H35       126.0128  131.4323  179.7926 H         1 UNK         0.0600 
     36 H36       127.3674  132.4538  180.1208 H         1 UNK         0.0600 
     37 H37       129.2995  132.4278  178.2405 H         1 UNK         0.1150 
     38 H38       128.2462  127.5601  177.9297 H         1 UNK         0.1150 
     39 H39       126.5883  127.8498  179.6503 H         1 UNK         0.0600 
     40 H40       126.0904  129.3693  180.2771 H         1 UNK         0.0600 
     41 H41       124.2728  128.4156  178.8639 H         1 UNK         0.0600 
     42 H42       124.8954  129.8483  178.0500 H         1 UNK         0.0600 
     43 H43       125.3765  128.2507  177.4948 H         1 UNK         0.0600 
     44 H44       130.1081  127.9392  175.7161 H         1 UNK         0.0600 
     45 H45       131.1253  127.6847  177.1390 H         1 UNK         0.0600 
     46 H46       132.5999  129.2393  176.3029 H         1 UNK         0.0600 
     47 H47       130.6417  130.4445  174.4956 H         1 UNK         0.3100 
     48 H48       133.0031  129.8427  173.2181 H         1 UNK         0.0600 
     49 H49       133.4459  130.5226  174.7533 H         1 UNK         0.0600 
     50 H50       131.7570  131.0867  171.8217 H         1 UNK         0.4180 
     51 H51       133.6033  132.1588  171.0471 H         1 UNK         0.1150 
     52 H52       135.7631  133.2006  170.5108 H         1 UNK         0.1150 
     53 H53       137.7090  134.2434  171.3843 H         1 UNK         0.4350 
     54 H54       134.5334  133.9713  177.5524 H         1 UNK         0.1150 
     55 H55       133.2104  132.7829  175.9421 H         1 UNK         0.1150 
     56 H56       131.9754  131.0594  177.6362 H         1 UNK         0.0600 
     57 H57       131.0817  131.7268  176.2673 H         1 UNK         0.0600 
     58 H58       131.2433  128.9975  174.1180 H         1 UNK         0.3100 
@<TRIPOS>BOND
     1    1    2 1    
     2    1   32 1    
     3    1   33 1    
     4    1   34 1    
     5    2    3 1    
     6    2   35 1    
     7    2   36 1    
     8    3    8 ar   
     9    3    4 ar   
    10    4    5 ar   
    11    4   37 1    
    12    5   31 1    
    13    5    6 ar   
    14    6    7 ar   
    15    6   11 1    
    16    7    8 ar   
    17    7   38 1    
    18    8    9 1    
    19    9   10 1    
    20    9   39 1    
    21    9   40 1    
    22   10   41 1    
    23   10   42 1    
    24   10   43 1    
    25   11   12 1    
    26   11   44 1    
    27   11   45 1    
    28   12   13 1    
    29   12   31 1    
    30   12   46 1    
    31   13   14 1    
    32   13   47 1    
    33   13   58 1    
    34   14   15 1    
    35   14   48 1    
    36   14   49 1    
    37   15   16 1    
    38   15   17 1    
    39   15   18 1    
    40   17   50 1    
    41   18   30 ar   
    42   18   19 ar   
    43   19   20 ar   
    44   19   51 1    
    45   20   21 ar   
    46   20   52 1    
    47   21   22 1    
    48   21   23 ar   
    49   22   53 1    
    50   23   30 ar   
    51   23   24 ar   
    52   24   25 1    
    53   24   26 ar   
    54   26   27 2    
    55   26   28 ar   
    56   28   29 ar   
    57   28   54 1    
    58   29   30 ar   
    59   29   55 1    
    60   31   56 1    
    61   31   57 1    
@<TRIPOS>SUBSTRUCTURE
     1 UNK         1 GROUP             0       ****    0 ROOT    
@<TRIPOS>MOLECULE
Row595
48   49    1
SMALL
USER_CHARGES


@<TRIPOS>ATOM
      1 C1        131.6382  129.0850  176.9299 C.3       1 UNK        -0.1800 
      2 C2        130.8372  128.7682  175.6514 C.3       1 UNK         0.2300 
      3 C3        129.3718  128.4208  175.9760 C.3       1 UNK        -0.1200 
      4 C4        128.5530  129.5871  176.5739 C.3       1 UNK        -0.0050 
      5 C5        127.0727  129.2828  176.7298 C.ar      1 UNK        -0.1150 
      6 C6        126.2704  129.0496  175.5908 C.ar      1 UNK        -0.1150 
      7 C7        124.8896  128.8097  175.7312 C.ar      1 UNK        -0.1150 
      8 C8        124.3014  128.8167  177.0110 C.ar      1 UNK        -0.1150 
      9 C9        125.0963  129.0497  178.1496 C.ar      1 UNK        -0.1150 
     10 C10       126.4800  129.2765  178.0102 C.ar      1 UNK        -0.1150 
     11 N11       130.8608  129.8497  174.6401 N.4       1 UNK        -0.2000 
     12 C12       132.1660  130.4258  174.2614 C.3       1 UNK         0.1700 
     13 C13       131.9532  131.7172  173.4535 C.3       1 UNK         0.3200 
     14 O14       131.1476  131.4500  172.3107 O.3       1 UNK        -0.6830 
     15 C15       133.2765  132.4113  173.1487 C.ar      1 UNK        -0.1150 
     16 C16       133.8155  132.4163  171.8505 C.ar      1 UNK        -0.1150 
     17 C17       135.0435  133.0517  171.6011 C.ar      1 UNK        -0.1150 
     18 C18       135.7643  133.6716  172.6357 C.ar      1 UNK        -0.1700 
     19 O19       136.9538  134.2497  172.2842 O.co2     1 UNK        -0.8300 
     20 C20       135.2532  133.6546  173.9675 C.ar      1 UNK        -0.1150 
     21 C21       135.9943  134.2368  175.1530 C.2       1 UNK         0.6150 
     22 N22       137.3073  134.3890  174.9963 N.am      1 UNK        -0.7600 
     23 O23       135.4238  134.4783  176.2167 O.2       1 UNK        -0.5000 
     24 C24       133.9958  133.0419  174.1918 C.ar      1 UNK        -0.1150 
     25 H25       131.4913  128.2978  177.6722 H         1 UNK         0.0600 
     26 H26       132.7107  129.1283  176.7408 H         1 UNK         0.0600 
     27 H27       131.3372  130.0316  177.3810 H         1 UNK         0.0600 
     28 H28       131.2927  127.8904  175.1876 H         1 UNK         0.0600 
     29 H29       129.3579  127.5824  176.6729 H         1 UNK         0.0600 
     30 H30       128.8963  128.0707  175.0582 H         1 UNK         0.0600 
     31 H31       128.6275  130.4725  175.9439 H         1 UNK         0.0600 
     32 H32       128.9634  129.8692  177.5440 H         1 UNK         0.0600 
     33 H33       126.7108  129.0685  174.6039 H         1 UNK         0.1150 
     34 H34       124.2813  128.6319  174.8571 H         1 UNK         0.1150 
     35 H35       123.2418  128.6455  177.1235 H         1 UNK         0.1150 
     36 H36       124.6454  129.0525  179.1317 H         1 UNK         0.1150 
     37 H37       127.0779  129.4563  178.8916 H         1 UNK         0.1150 
     38 H38       130.4883  129.4512  173.7742 H         1 UNK         0.3100 
     39 H39       132.7452  130.6717  175.1499 H         1 UNK         0.0600 
     40 H40       132.7429  129.6932  173.6949 H         1 UNK         0.0600 
     41 H41       131.3776  132.4145  174.0630 H         1 UNK         0.0600 
     42 H42       131.5220  130.7463  171.7858 H         1 UNK         0.4180 
     43 H43       133.3016  131.9264  171.0401 H         1 UNK         0.1150 
     44 H44       135.4514  133.0488  170.6024 H         1 UNK         0.1150 
     45 H45       137.6148  134.2502  174.0294 H         1 UNK         0.3800 
     46 H46       137.9370  134.6970  175.7272 H         1 UNK         0.3800 
     47 H47       133.5874  133.0248  175.1914 H         1 UNK         0.1150 
     48 H48       130.2464  130.5942  174.9350 H         1 UNK         0.3100 
@<TRIPOS>BOND
     1    1    2 1    
     2    1   25 1    
     3    1   26 1    
     4    1   27 1    
     5    2    3 1    
     6    2   11 1    
     7    2   28 1    
     8    3    4 1    
     9    3   29 1    
    10    3   30 1    
    11    4    5 1    
    12    4   31 1    
    13    4   32 1    
    14    5   10 ar   
    15    5    6 ar   
    16    6    7 ar   
    17    6   33 1    
    18    7    8 ar   
    19    7   34 1    
    20    8    9 ar   
    21    8   35 1    
    22    9   10 ar   
    23    9   36 1    
    24   10   37 1    
    25   11   12 1    
    26   11   38 1    
    27   11   48 1    
    28   12   13 1    
    29   12   39 1    
    30   12   40 1    
    31   13   14 1    
    32   13   15 1    
    33   13   41 1    
    34   14   42 1    
    35   15   24 ar   
    36   15   16 ar   
    37   16   17 ar   
    38   16   43 1    
    39   17   18 ar   
    40   17   44 1    
    41   18   19 1    
    42   18   20 ar   
    43   20   21 1    
    44   20   24 ar   
    45   21   22 am   BACKBONE|DICT|INTERRES
    46   21   23 2    
    47   22   45 1    
    48   22   46 1    
    49   24   47 1    
@<TRIPOS>SUBSTRUCTURE
     1 UNK         1 GROUP             0       ****    0 ROOT    
@<TRIPOS>MOLECULE
Row375
39   40    1
SMALL
USER_CHARGES


@<TRIPOS>ATOM
      1 C1        131.8414  128.8290  175.4812 C.3       1 UNK        -0.1800 
      2 C2        130.4543  129.4977  175.5195 C.3       1 UNK         0.2300 
      3 C3        129.3579  128.4481  175.7145 C.3       1 UNK        -0.1800 
      4 N4        130.1908  130.2497  174.2754 N.4       1 UNK        -0.2000 
      5 C5        130.9580  131.5070  174.1128 C.3       1 UNK         0.1700 
      6 C6        131.6555  131.5681  172.7430 C.3       1 UNK         0.2050 
      7 O7        130.6737  131.4497  171.7380 O.3       1 UNK        -0.6830 
      8 C8        132.4216  132.8772  172.4954 C.3       1 UNK         0.1400 
      9 O9        133.4121  133.0367  173.5098 O.3       1 UNK        -0.3000 
     10 C10       134.6967  133.4497  173.2124 C.ar      1 UNK         0.0456 
     11 C11       135.2713  133.4489  171.9140 C.ar      1 UNK        -0.2222 
     12 C12       136.6040  133.8523  171.7146 C.ar      1 UNK        -0.0888 
     13 C13       137.3916  134.2497  172.8075 C.ar      1 UNK        -0.3541 
     14 C14       136.8357  134.2348  174.0957 C.ar      1 UNK         0.2860 
     15 N15       137.3579  134.5290  175.3412 N.pl3     1 UNK        -0.4786 
     16 H16       138.3210  134.7823  175.5656 H         1 UNK         0.3577 
     17 C17       136.3927  134.3803  176.3211 C.ar      1 UNK        -0.1072 
     18 C18       135.2262  133.9606  175.7366 C.ar      1 UNK        -0.2567 
     19 C19       135.4810  133.8497  174.3255 C.ar      1 UNK         0.1233 
     20 H20       132.0237  128.2573  176.3920 H         1 UNK         0.0600 
     21 H21       132.6490  129.5557  175.3923 H         1 UNK         0.0600 
     22 H22       131.9242  128.1387  174.6402 H         1 UNK         0.0600 
     23 H23       130.4106  130.1912  176.3609 H         1 UNK         0.0600 
     24 H24       129.5079  127.8860  176.6370 H         1 UNK         0.0600 
     25 H25       128.3693  128.9062  175.7622 H         1 UNK         0.0600 
     26 H26       129.3579  127.7375  174.8870 H         1 UNK         0.0600 
     27 H27       130.3742  129.6111  173.4956 H         1 UNK         0.3100 
     28 H28       130.2738  132.3459  174.2401 H         1 UNK         0.0600 
     29 H29       131.7030  131.6104  174.9022 H         1 UNK         0.0600 
     30 H30       132.3470  130.7291  172.6447 H         1 UNK         0.0600 
     31 H31       130.8464  130.6121  171.2874 H         1 UNK         0.4180 
     32 H32       132.7937  132.8642  171.4763 H         1 UNK         0.0300 
     33 H33       131.7370  133.7235  172.5480 H         1 UNK         0.0300 
     34 H34       134.7356  133.1215  171.0401 H         1 UNK         0.1489 
     35 H35       137.0312  133.8457  170.7218 H         1 UNK         0.1359 
     36 H36       138.4195  134.5501  172.6541 H         1 UNK         0.1796 
     37 H37       136.6238  134.5697  177.3600 H         1 UNK         0.1929 
     38 H38       134.2915  133.7388  176.2296 H         1 UNK         0.1377 
     39 H39       129.2054  130.4905  174.2401 H         1 UNK         0.3100 
@<TRIPOS>BOND
     1    1    2 1    
     2    1   20 1    
     3    1   21 1    
     4    1   22 1    
     5    2    3 1    
     6    2    4 1    
     7    2   23 1    
     8    3   24 1    
     9    3   25 1    
    10    3   26 1    
    11    4    5 1    
    12    4   27 1    
    13    4   39 1    
    14    5    6 1    
    15    5   28 1    
    16    5   29 1    
    17    6    7 1    
    18    6    8 1    
    19    6   30 1    
    20    7   31 1    
    21    8    9 1    
    22    8   32 1    
    23    8   33 1    
    24    9   10 1    
    25   10   19 ar   
    26   10   11 ar   
    27   11   12 ar   
    28   11   34 1    
    29   12   13 ar   
    30   12   35 1    
    31   13   14 ar   
    32   13   36 1    
    33   14   19 ar   
    34   14   15 ar   
    35   15   16 1    
    36   15   17 ar   
    37   17   18 ar   
    38   17   37 1    
    39   18   19 ar   
    40   18   38 1    
@<TRIPOS>SUBSTRUCTURE
     1 UNK         1 GROUP             0       ****    0 ROOT    
@<TRIPOS>MOLECULE
Row392
39   40    1
SMALL
USER_CHARGES


@<TRIPOS>ATOM
      1 C1        131.8414  128.8290  175.4812 C.3       1 UNK        -0.1800 
      2 C2        130.4543  129.4977  175.5195 C.3       1 UNK         0.2300 
      3 C3        129.3579  128.4481  175.7145 C.3       1 UNK        -0.1800 
      4 N4        130.1908  130.2497  174.2754 N.4       1 UNK        -0.2000 
      5 C5        130.9580  131.5070  174.1128 C.3       1 UNK         0.1700 
      6 C6        131.6555  131.5681  172.7430 C.3       1 UNK         0.2050 
      7 O7        130.6737  131.4497  171.7380 O.3       1 UNK        -0.6830 
      8 C8        132.4216  132.8772  172.4954 C.3       1 UNK         0.1400 
      9 O9        133.4121  133.0367  173.5098 O.3       1 UNK        -0.3000 
     10 C10       134.6967  133.4497  173.2124 C.ar      1 UNK         0.0456 
     11 C11       135.2713  133.4489  171.9140 C.ar      1 UNK        -0.2222 
     12 C12       136.6040  133.8523  171.7146 C.ar      1 UNK        -0.0888 
     13 C13       137.3916  134.2497  172.8075 C.ar      1 UNK        -0.3541 
     14 C14       136.8357  134.2348  174.0957 C.ar      1 UNK         0.2860 
     15 N15       137.3579  134.5290  175.3412 N.pl3     1 UNK        -0.4786 
     16 H16       138.3210  134.7823  175.5656 H         1 UNK         0.3577 
     17 C17       136.3927  134.3803  176.3211 C.ar      1 UNK        -0.1072 
     18 C18       135.2262  133.9606  175.7366 C.ar      1 UNK        -0.2567 
     19 C19       135.4810  133.8497  174.3255 C.ar      1 UNK         0.1233 
     20 H20       132.0237  128.2573  176.3920 H         1 UNK         0.0600 
     21 H21       132.6490  129.5557  175.3923 H         1 UNK         0.0600 
     22 H22       131.9242  128.1387  174.6402 H         1 UNK         0.0600 
     23 H23       130.4106  130.1912  176.3609 H         1 UNK         0.0600 
     24 H24       129.5079  127.8860  176.6370 H         1 UNK         0.0600 
     25 H25       128.3693  128.9062  175.7622 H         1 UNK         0.0600 
     26 H26       129.3579  127.7375  174.8870 H         1 UNK         0.0600 
     27 H27       130.3742  129.6111  173.4956 H         1 UNK         0.3100 
     28 H28       130.2738  132.3459  174.2401 H         1 UNK         0.0600 
     29 H29       131.7030  131.6104  174.9022 H         1 UNK         0.0600 
     30 H30       132.3470  130.7291  172.6447 H         1 UNK         0.0600 
     31 H31       130.8464  130.6121  171.2874 H         1 UNK         0.4180 
     32 H32       132.7937  132.8642  171.4763 H         1 UNK         0.0300 
     33 H33       131.7370  133.7235  172.5480 H         1 UNK         0.0300 
     34 H34       134.7356  133.1215  171.0401 H         1 UNK         0.1489 
     35 H35       137.0312  133.8457  170.7218 H         1 UNK         0.1359 
     36 H36       138.4195  134.5501  172.6541 H         1 UNK         0.1796 
     37 H37       136.6238  134.5697  177.3600 H         1 UNK         0.1929 
     38 H38       134.2915  133.7388  176.2296 H         1 UNK         0.1377 
     39 H39       129.2054  130.4905  174.2401 H         1 UNK         0.3100 
@<TRIPOS>BOND
     1    1    2 1    
     2    1   20 1    
     3    1   21 1    
     4    1   22 1    
     5    2    3 1    
     6    2    4 1    
     7    2   23 1    
     8    3   24 1    
     9    3   25 1    
    10    3   26 1    
    11    4    5 1    
    12    4   27 1    
    13    4   39 1    
    14    5    6 1    
    15    5   28 1    
    16    5   29 1    
    17    6    7 1    
    18    6    8 1    
    19    6   30 1    
    20    7   31 1    
    21    8    9 1    
    22    8   32 1    
    23    8   33 1    
    24    9   10 1    
    25   10   19 ar   
    26   10   11 ar   
    27   11   12 ar   
    28   11   34 1    
    29   12   13 ar   
    30   12   35 1    
    31   13   14 ar   
    32   13   36 1    
    33   14   19 ar   
    34   14   15 ar   
    35   15   16 1    
    36   15   17 ar   
    37   17   18 ar   
    38   17   37 1    
    39   18   19 ar   
    40   18   38 1    
@<TRIPOS>SUBSTRUCTURE
     1 UNK         1 GROUP             0       ****    0 ROOT    
@<TRIPOS>MOLECULE
Row270
53   54    1
SMALL
USER_CHARGES


@<TRIPOS>ATOM
      1 C1        129.9366  128.2496  177.0786 C.3       1 UNK        -0.1800 
      2 C2        130.7890  127.5576  176.0048 C.3       1 UNK        -0.1200 
      3 C3        131.9113  128.4507  175.4630 C.3       1 UNK         0.1700 
      4 N4        131.3842  129.5583  174.6402 N.4       1 UNK        -0.2000 
      5 C5        132.4417  130.3855  174.0312 C.3       1 UNK         0.1700 
      6 C6        131.9015  131.6996  173.4386 C.3       1 UNK         0.2050 
      7 O7        131.0068  131.4498  172.3666 O.3       1 UNK        -0.6830 
      8 C8        133.0651  132.5633  172.9323 C.3       1 UNK         0.1400 
      9 O9        133.8037  133.0511  174.0525 O.3       1 UNK        -0.2850 
     10 C10       135.0342  133.6528  173.8490 C.ar      1 UNK         0.0850 
     11 C11       135.6322  133.6892  172.5588 C.ar      1 UNK        -0.1150 
     12 C12       136.9014  134.2497  172.3583 C.ar      1 UNK        -0.1150 
     13 C13       137.5833  134.8176  173.4389 C.ar      1 UNK        -0.1150 
     14 C14       136.9926  134.8371  174.7118 C.ar      1 UNK        -0.1150 
     15 C15       135.7254  134.2441  174.9555 C.ar      1 UNK        -0.1150 
     16 C16       135.1442  134.2613  176.3536 C.2       1 UNK         0.5850 
     17 O17       134.0527  133.7726  176.6398 O.2       1 UNK        -0.4700 
     18 C18       135.9178  135.0150  177.4696 C.3       1 UNK        -0.1200 
     19 C19       135.7124  134.5153  178.9132 C.3       1 UNK        -0.0050 
     20 C20       134.6026  135.1416  179.7449 C.ar      1 UNK        -0.1150 
     21 C21       134.8943  136.1950  180.6400 C.ar      1 UNK        -0.1150 
     22 C22       133.9188  136.6495  181.5492 C.ar      1 UNK        -0.1150 
     23 C23       132.6354  136.0746  181.5537 C.ar      1 UNK        -0.1150 
     24 C24       132.3293  135.0505  180.6420 C.ar      1 UNK        -0.1150 
     25 C25       133.3039  134.5956  179.7341 C.ar      1 UNK        -0.1150 
     26 H26       129.1964  127.5633  177.4896 H         1 UNK         0.0600 
     27 H27       130.5538  128.5982  177.9075 H         1 UNK         0.0600 
     28 H28       129.3998  129.1066  176.6722 H         1 UNK         0.0600 
     29 H29       130.1585  127.2096  175.1846 H         1 UNK         0.0600 
     30 H30       131.2364  126.6627  176.4395 H         1 UNK         0.0600 
     31 H31       132.5820  127.8495  174.8476 H         1 UNK         0.0600 
     32 H32       132.5081  128.8476  176.2853 H         1 UNK         0.0600 
     33 H33       130.7693  130.1349  175.1977 H         1 UNK         0.3100 
     34 H34       132.9584  129.8018  173.2690 H         1 UNK         0.0600 
     35 H35       133.1782  130.6226  174.7996 H         1 UNK         0.0600 
     36 H36       131.3526  132.2516  174.2016 H         1 UNK         0.0600 
     37 H37       131.3578  130.7803  171.7821 H         1 UNK         0.4180 
     38 H38       132.6949  133.4115  172.3536 H         1 UNK         0.0300 
     39 H39       133.6735  131.9409  172.2755 H         1 UNK         0.0300 
     40 H40       135.1506  133.2837  171.6842 H         1 UNK         0.1150 
     41 H41       137.3490  134.2475  171.3759 H         1 UNK         0.1150 
     42 H42       138.5577  135.2552  173.2838 H         1 UNK         0.1150 
     43 H43       137.5691  135.3222  175.4821 H         1 UNK         0.1150 
     44 H44       135.7579  136.0915  177.4252 H         1 UNK         0.0600 
     45 H45       136.9775  134.8509  177.2943 H         1 UNK         0.0600 
     46 H46       136.6485  134.6525  179.4568 H         1 UNK         0.0600 
     47 H47       135.5416  133.4495  178.9103 H         1 UNK         0.0600 
     48 H48       135.8783  136.6264  180.6714 H         1 UNK         0.1150 
     49 H49       134.1574  137.4428  182.2422 H         1 UNK         0.1150 
     50 H50       131.8914  136.4147  182.2572 H         1 UNK         0.1150 
     51 H51       131.3490  134.5995  180.6436 H         1 UNK         0.1150 
     52 H52       133.0525  133.7948  179.0598 H         1 UNK         0.1150 
     53 H53       130.8437  129.1427  173.8770 H         1 UNK         0.3100 
@<TRIPOS>BOND
     1    1    2 1    
     2    1   26 1    
     3    1   27 1    
     4    1   28 1    
     5    2    3 1    
     6    2   29 1    
     7    2   30 1    
     8    3    4 1    
     9    3   31 1    
    10    3   32 1    
    11    4    5 1    
    12    4   33 1    
    13    4   53 1    
    14    5    6 1    
    15    5   34 1    
    16    5   35 1    
    17    6    7 1    
    18    6    8 1    
    19    6   36 1    
    20    7   37 1    
    21    8    9 1    
    22    8   38 1    
    23    8   39 1    
    24    9   10 1    
    25   10   15 ar   
    26   10   11 ar   
    27   11   12 ar   
    28   11   40 1    
    29   12   13 ar   
    30   12   41 1    
    31   13   14 ar   
    32   13   42 1    
    33   14   15 ar   
    34   14   43 1    
    35   15   16 1    
    36   16   17 2    
    37   16   18 1    
    38   18   19 1    
    39   18   44 1    
    40   18   45 1    
    41   19   20 1    
    42   19   46 1    
    43   19   47 1    
    44   20   25 ar   
    45   20   21 ar   
    46   21   22 ar   
    47   21   48 1    
    48   22   23 ar   
    49   22   49 1    
    50   23   24 ar   
    51   23   50 1    
    52   24   25 ar   
    53   24   51 1    
    54   25   52 1    
@<TRIPOS>SUBSTRUCTURE
     1 UNK         1 GROUP             0       ****    0 ROOT    
@<TRIPOS>MOLECULE
Row120
46   47    1
SMALL
USER_CHARGES


@<TRIPOS>ATOM
      1 C1        130.1979  130.6199  176.8321 C.3       1 UNK        -0.1800 
      2 C2        130.3500  129.7211  175.5862 C.3       1 UNK         0.2900 
      3 C3        131.7269  129.0220  175.5784 C.3       1 UNK        -0.1800 
      4 C4        129.2562  128.6434  175.6246 C.3       1 UNK        -0.1800 
      5 N5        130.1579  130.5011  174.3390 N.4       1 UNK        -0.2000 
      6 C6        131.0615  131.6479  174.0908 C.3       1 UNK         0.1700 
      7 C7        131.7419  131.5005  172.7198 C.3       1 UNK         0.2050 
      8 O8        130.7287  131.4498  171.7421 O.3       1 UNK        -0.6830 
      9 C9        132.7227  132.6291  172.3583 C.3       1 UNK         0.1400 
     10 O10       133.4636  132.9289  173.5291 O.3       1 UNK        -0.2850 
     11 C11       134.7345  133.4501  173.4598 C.ar      1 UNK         0.0850 
     12 C12       135.4425  133.7125  172.2609 C.ar      1 UNK        -0.1150 
     13 C13       136.7692  134.1856  172.3103 C.ar      1 UNK        -0.1150 
     14 C14       137.4067  134.3916  173.5479 C.ar      1 UNK        -0.1150 
     15 C15       136.7034  134.1531  174.7436 C.ar      1 UNK         0.0850 
     16 C16       135.3614  133.7100  174.6979 C.ar      1 UNK        -0.1150 
     17 C17       134.6101  133.4757  176.0030 C.3       1 UNK        -0.0050 
     18 C18       135.2120  134.2501  177.1916 C.3       1 UNK        -0.1200 
     19 C19       136.7410  134.2822  177.1798 C.2       1 UNK         0.5000 
     20 O20       137.3578  134.2746  178.2402 O.2       1 UNK        -0.5000 
     21 N21       137.3568  134.3190  175.9891 N.am      1 UNK        -0.3850 
     22 H22       130.2388  130.0271  177.7467 H         1 UNK         0.0600 
     23 H23       129.2420  131.1455  176.8288 H         1 UNK         0.0600 
     24 H24       130.9863  131.3681  176.9098 H         1 UNK         0.0600 
     25 H25       131.8553  128.4091  174.6845 H         1 UNK         0.0600 
     26 H26       132.5566  129.7272  175.6148 H         1 UNK         0.0600 
     27 H27       131.8366  128.3623  176.4404 H         1 UNK         0.0600 
     28 H28       129.3155  127.9837  174.7566 H         1 UNK         0.0600 
     29 H29       129.3514  128.0175  176.5130 H         1 UNK         0.0600 
     30 H30       128.2570  129.0826  175.6347 H         1 UNK         0.0600 
     31 H31       130.2646  129.8506  173.5628 H         1 UNK         0.3100 
     32 H32       130.4899  132.5733  174.1488 H         1 UNK         0.0600 
     33 H33       131.8211  131.7165  174.8671 H         1 UNK         0.0600 
     34 H34       132.2903  130.5577  172.7071 H         1 UNK         0.0600 
     35 H35       130.9574  130.7289  171.1497 H         1 UNK         0.4180 
     36 H36       133.3363  132.2854  171.5262 H         1 UNK         0.0300 
     37 H37       132.1937  133.5307  172.0437 H         1 UNK         0.0300 
     38 H38       135.0006  133.5539  171.2898 H         1 UNK         0.1150 
     39 H39       137.3119  134.3667  171.3950 H         1 UNK         0.1150 
     40 H40       138.4332  134.7297  173.5700 H         1 UNK         0.1150 
     41 H41       133.5781  133.7993  175.8817 H         1 UNK         0.0600 
     42 H42       134.5582  132.4064  176.2070 H         1 UNK         0.0600 
     43 H43       134.8475  133.8502  178.1381 H         1 UNK         0.0600 
     44 H44       134.8950  135.2896  177.1559 H         1 UNK         0.0600 
     45 H45       138.3646  134.4807  176.0012 H         1 UNK         0.3000 
     46 H46       129.1993  130.8390  174.3048 H         1 UNK         0.3100 
@<TRIPOS>BOND
     1    1    2 1    
     2    1   22 1    
     3    1   23 1    
     4    1   24 1    
     5    2    3 1    
     6    2    4 1    
     7    2    5 1    
     8    3   25 1    
     9    3   26 1    
    10    3   27 1    
    11    4   28 1    
    12    4   29 1    
    13    4   30 1    
    14    5    6 1    
    15    5   31 1    
    16    5   46 1    
    17    6    7 1    
    18    6   32 1    
    19    6   33 1    
    20    7    8 1    
    21    7    9 1    
    22    7   34 1    
    23    8   35 1    
    24    9   10 1    
    25    9   36 1    
    26    9   37 1    
    27   10   11 1    
    28   11   16 ar   
    29   11   12 ar   
    30   12   13 ar   
    31   12   38 1    
    32   13   14 ar   
    33   13   39 1    
    34   14   15 ar   
    35   14   40 1    
    36   15   21 1    
    37   15   16 ar   
    38   16   17 1    
    39   17   18 1    
    40   17   41 1    
    41   17   42 1    
    42   18   19 1    
    43   18   43 1    
    44   18   44 1    
    45   19   20 2    
    46   19   21 am   BACKBONE|DICT|INTERRES
    47   21   45 1    
@<TRIPOS>SUBSTRUCTURE
     1 UNK         1 GROUP             0       ****    0 ROOT    
@<TRIPOS>MOLECULE
Row211
50   51    1
SMALL
USER_CHARGES


@<TRIPOS>ATOM
      1 C1        126.2895  129.7920  182.3486 C.3       1 UNK         0.1100 
      2 O2        126.3715  130.7286  181.2850 O.3       1 UNK        -0.2850 
      3 C3        126.8988  130.3075  180.0848 C.ar      1 UNK         0.0850 
      4 C4        127.3578  128.9907  179.8263 C.ar      1 UNK        -0.1150 
      5 C5        127.8884  128.6539  178.5646 C.ar      1 UNK        -0.1150 
      6 C6        127.9667  129.6272  177.5472 C.ar      1 UNK        -0.1150 
      7 C7        128.5339  129.2947  176.1797 C.3       1 UNK        -0.0050 
      8 C8        130.0368  129.6118  176.0602 C.3       1 UNK         0.2300 
      9 C9        130.9001  128.4808  176.6548 C.3       1 UNK        -0.1800 
     10 N10       130.3711  129.8506  174.6401 N.4       1 UNK        -0.2000 
     11 C11       131.7249  130.3847  174.3529 C.3       1 UNK         0.1700 
     12 C12       131.6673  131.6764  173.5075 C.3       1 UNK         0.3200 
     13 O13       130.9579  131.4497  172.3002 O.3       1 UNK        -0.6830 
     14 C14       133.0455  132.3023  173.2919 C.ar      1 UNK        -0.1150 
     15 C15       133.6206  132.4169  172.0076 C.ar      1 UNK        -0.1150 
     16 C16       134.8665  133.0497  171.8401 C.ar      1 UNK        -0.1150 
     17 C17       135.5592  133.5750  172.9454 C.ar      1 UNK         0.1500 
     18 O18       136.7550  134.2011  172.7275 O.3       1 UNK        -0.5850 
     19 C19       135.0124  133.4497  174.2434 C.ar      1 UNK         0.0850 
     20 N20       135.7815  133.8889  175.3570 N.am      1 UNK        -0.3850 
     21 C21       135.3380  134.2693  176.5657 C.2       1 UNK         0.5000 
     22 O22       134.1580  134.4361  176.8755 O.2       1 UNK        -0.5000 
     23 C23       133.7579  132.8074  174.4021 C.ar      1 UNK        -0.1150 
     24 C24       127.5052  130.9350  177.7989 C.ar      1 UNK        -0.1150 
     25 C25       126.9761  131.2689  179.0583 C.ar      1 UNK        -0.1150 
     26 H26       125.8358  130.2696  183.2171 H         1 UNK         0.0300 
     27 H27       127.2821  129.4497  182.6401 H         1 UNK         0.0300 
     28 H28       125.6715  128.9326  182.0855 H         1 UNK         0.0300 
     29 H29       127.3113  128.2181  180.5796 H         1 UNK         0.1150 
     30 H30       128.2335  127.6455  178.3861 H         1 UNK         0.1150 
     31 H31       128.3503  128.2497  175.9431 H         1 UNK         0.0600 
     32 H32       127.9594  129.8497  175.4402 H         1 UNK         0.0600 
     33 H33       130.2374  130.5443  176.5909 H         1 UNK         0.0600 
     34 H34       130.6541  128.3083  177.7028 H         1 UNK         0.0600 
     35 H35       130.7459  127.5402  176.1238 H         1 UNK         0.0600 
     36 H36       131.9650  128.7100  176.6160 H         1 UNK         0.0600 
     37 H37       130.2520  129.0145  174.0622 H         1 UNK         0.3100 
     38 H38       132.2475  130.5908  175.2871 H         1 UNK         0.0600 
     39 H39       132.3050  129.6161  173.8405 H         1 UNK         0.0600 
     40 H40       131.0828  132.4148  174.0578 H         1 UNK         0.0600 
     41 H41       131.3579  130.7339  171.8088 H         1 UNK         0.4180 
     42 H42       133.1145  132.0343  171.1341 H         1 UNK         0.1150 
     43 H43       135.2930  133.1368  170.8515 H         1 UNK         0.1150 
     44 H44       137.1131  134.6496  173.4763 H         1 UNK         0.4350 
     45 H45       136.7837  133.8797  175.2382 H         1 UNK         0.3000 
     46 H46       136.1859  134.4526  177.2437 H         1 UNK         0.0000 
     47 H47       133.3308  132.6827  175.3849 H         1 UNK         0.1150 
     48 H48       127.5519  131.6876  177.0244 H         1 UNK         0.1150 
     49 H49       126.6229  132.2731  179.2412 H         1 UNK         0.1150 
     50 H50       129.7054  130.5237  174.2811 H         1 UNK         0.3100 
@<TRIPOS>BOND
     1    1    2 1    
     2    1   26 1    
     3    1   27 1    
     4    1   28 1    
     5    2    3 1    
     6    3   25 ar   
     7    3    4 ar   
     8    4    5 ar   
     9    4   29 1    
    10    5    6 ar   
    11    5   30 1    
    12    6    7 1    
    13    6   24 ar   
    14    7    8 1    
    15    7   31 1    
    16    7   32 1    
    17    8    9 1    
    18    8   10 1    
    19    8   33 1    
    20    9   34 1    
    21    9   35 1    
    22    9   36 1    
    23   10   11 1    
    24   10   37 1    
    25   10   50 1    
    26   11   12 1    
    27   11   38 1    
    28   11   39 1    
    29   12   13 1    
    30   12   14 1    
    31   12   40 1    
    32   13   41 1    
    33   14   23 ar   
    34   14   15 ar   
    35   15   16 ar   
    36   15   42 1    
    37   16   17 ar   
    38   16   43 1    
    39   17   18 1    
    40   17   19 ar   
    41   18   44 1    
    42   19   20 1    
    43   19   23 ar   
    44   20   21 am   BACKBONE|DICT|INTERRES
    45   20   45 1    
    46   21   22 2    
    47   21   46 1    
    48   23   47 1    
    49   24   25 ar   
    50   24   48 1    
    51   25   49 1    
@<TRIPOS>SUBSTRUCTURE
     1 UNK         1 GROUP             0       ****    0 ROOT    
@<TRIPOS>MOLECULE
Row411
50   51    1
SMALL
USER_CHARGES


@<TRIPOS>ATOM
      1 C1        126.2895  129.7920  182.3486 C.3       1 UNK         0.1100 
      2 O2        126.3715  130.7286  181.2850 O.3       1 UNK        -0.2850 
      3 C3        126.8988  130.3075  180.0848 C.ar      1 UNK         0.0850 
      4 C4        127.3578  128.9907  179.8263 C.ar      1 UNK        -0.1150 
      5 C5        127.8884  128.6539  178.5646 C.ar      1 UNK        -0.1150 
      6 C6        127.9667  129.6272  177.5472 C.ar      1 UNK        -0.1150 
      7 C7        128.5339  129.2947  176.1797 C.3       1 UNK        -0.0050 
      8 C8        130.0368  129.6118  176.0602 C.3       1 UNK         0.2300 
      9 C9        130.9001  128.4808  176.6548 C.3       1 UNK        -0.1800 
     10 N10       130.3711  129.8506  174.6401 N.4       1 UNK        -0.2000 
     11 C11       131.7249  130.3847  174.3529 C.3       1 UNK         0.1700 
     12 C12       131.6673  131.6764  173.5075 C.3       1 UNK         0.3200 
     13 O13       130.9579  131.4497  172.3002 O.3       1 UNK        -0.6830 
     14 C14       133.0455  132.3023  173.2919 C.ar      1 UNK        -0.1150 
     15 C15       133.6206  132.4169  172.0076 C.ar      1 UNK        -0.1150 
     16 C16       134.8665  133.0497  171.8401 C.ar      1 UNK        -0.1150 
     17 C17       135.5592  133.5750  172.9454 C.ar      1 UNK         0.1500 
     18 O18       136.7550  134.2011  172.7275 O.3       1 UNK        -0.5850 
     19 C19       135.0124  133.4497  174.2434 C.ar      1 UNK         0.0850 
     20 N20       135.7815  133.8889  175.3570 N.am      1 UNK        -0.3850 
     21 C21       135.3380  134.2693  176.5657 C.2       1 UNK         0.5000 
     22 O22       134.1580  134.4361  176.8755 O.2       1 UNK        -0.5000 
     23 C23       133.7579  132.8074  174.4021 C.ar      1 UNK        -0.1150 
     24 C24       127.5052  130.9350  177.7989 C.ar      1 UNK        -0.1150 
     25 C25       126.9761  131.2689  179.0583 C.ar      1 UNK        -0.1150 
     26 H26       125.8358  130.2696  183.2171 H         1 UNK         0.0300 
     27 H27       127.2821  129.4497  182.6401 H         1 UNK         0.0300 
     28 H28       125.6715  128.9326  182.0855 H         1 UNK         0.0300 
     29 H29       127.3113  128.2181  180.5796 H         1 UNK         0.1150 
     30 H30       128.2335  127.6455  178.3861 H         1 UNK         0.1150 
     31 H31       128.3503  128.2497  175.9431 H         1 UNK         0.0600 
     32 H32       127.9594  129.8497  175.4402 H         1 UNK         0.0600 
     33 H33       130.2374  130.5443  176.5909 H         1 UNK         0.0600 
     34 H34       130.6541  128.3083  177.7028 H         1 UNK         0.0600 
     35 H35       130.7459  127.5402  176.1238 H         1 UNK         0.0600 
     36 H36       131.9650  128.7100  176.6160 H         1 UNK         0.0600 
     37 H37       130.2520  129.0145  174.0622 H         1 UNK         0.3100 
     38 H38       132.2475  130.5908  175.2871 H         1 UNK         0.0600 
     39 H39       132.3050  129.6161  173.8405 H         1 UNK         0.0600 
     40 H40       131.0828  132.4148  174.0578 H         1 UNK         0.0600 
     41 H41       131.3579  130.7339  171.8088 H         1 UNK         0.4180 
     42 H42       133.1145  132.0343  171.1341 H         1 UNK         0.1150 
     43 H43       135.2930  133.1368  170.8515 H         1 UNK         0.1150 
     44 H44       137.1131  134.6496  173.4763 H         1 UNK         0.4350 
     45 H45       136.7837  133.8797  175.2382 H         1 UNK         0.3000 
     46 H46       136.1859  134.4526  177.2437 H         1 UNK         0.0000 
     47 H47       133.3308  132.6827  175.3849 H         1 UNK         0.1150 
     48 H48       127.5519  131.6876  177.0244 H         1 UNK         0.1150 
     49 H49       126.6229  132.2731  179.2412 H         1 UNK         0.1150 
     50 H50       129.7054  130.5237  174.2811 H         1 UNK         0.3100 
@<TRIPOS>BOND
     1    1    2 1    
     2    1   26 1    
     3    1   27 1    
     4    1   28 1    
     5    2    3 1    
     6    3   25 ar   
     7    3    4 ar   
     8    4    5 ar   
     9    4   29 1    
    10    5    6 ar   
    11    5   30 1    
    12    6    7 1    
    13    6   24 ar   
    14    7    8 1    
    15    7   31 1    
    16    7   32 1    
    17    8    9 1    
    18    8   10 1    
    19    8   33 1    
    20    9   34 1    
    21    9   35 1    
    22    9   36 1    
    23   10   11 1    
    24   10   37 1    
    25   10   50 1    
    26   11   12 1    
    27   11   38 1    
    28   11   39 1    
    29   12   13 1    
    30   12   14 1    
    31   12   40 1    
    32   13   41 1    
    33   14   23 ar   
    34   14   15 ar   
    35   15   16 ar   
    36   15   42 1    
    37   16   17 ar   
    38   16   43 1    
    39   17   18 1    
    40   17   19 ar   
    41   18   44 1    
    42   19   20 1    
    43   19   23 ar   
    44   20   21 am   BACKBONE|DICT|INTERRES
    45   20   45 1    
    46   21   22 2    
    47   21   46 1    
    48   23   47 1    
    49   24   25 ar   
    50   24   48 1    
    51   25   49 1    
@<TRIPOS>SUBSTRUCTURE
     1 UNK         1 GROUP             0       ****    0 ROOT    
@<TRIPOS>MOLECULE
Row637
50   51    1
SMALL
USER_CHARGES


@<TRIPOS>ATOM
      1 C1        126.2895  129.7920  182.3486 C.3       1 UNK         0.1100 
      2 O2        126.3715  130.7286  181.2850 O.3       1 UNK        -0.2850 
      3 C3        126.8988  130.3075  180.0848 C.ar      1 UNK         0.0850 
      4 C4        127.3578  128.9907  179.8263 C.ar      1 UNK        -0.1150 
      5 C5        127.8884  128.6539  178.5646 C.ar      1 UNK        -0.1150 
      6 C6        127.9667  129.6272  177.5472 C.ar      1 UNK        -0.1150 
      7 C7        128.5339  129.2947  176.1797 C.3       1 UNK        -0.0050 
      8 C8        130.0368  129.6118  176.0602 C.3       1 UNK         0.2300 
      9 C9        130.9001  128.4808  176.6548 C.3       1 UNK        -0.1800 
     10 N10       130.3711  129.8506  174.6401 N.4       1 UNK        -0.2000 
     11 C11       131.7249  130.3847  174.3529 C.3       1 UNK         0.1700 
     12 C12       131.6673  131.6764  173.5075 C.3       1 UNK         0.3200 
     13 O13       130.9579  131.4497  172.3002 O.3       1 UNK        -0.6830 
     14 C14       133.0455  132.3023  173.2919 C.ar      1 UNK        -0.1150 
     15 C15       133.6206  132.4169  172.0076 C.ar      1 UNK        -0.1150 
     16 C16       134.8665  133.0497  171.8401 C.ar      1 UNK        -0.1150 
     17 C17       135.5592  133.5750  172.9454 C.ar      1 UNK         0.1500 
     18 O18       136.7550  134.2011  172.7275 O.3       1 UNK        -0.5850 
     19 C19       135.0124  133.4497  174.2434 C.ar      1 UNK         0.0850 
     20 N20       135.7815  133.8889  175.3570 N.am      1 UNK        -0.3850 
     21 C21       135.3380  134.2693  176.5657 C.2       1 UNK         0.5000 
     22 O22       134.1580  134.4361  176.8755 O.2       1 UNK        -0.5000 
     23 C23       133.7579  132.8074  174.4021 C.ar      1 UNK        -0.1150 
     24 C24       127.5052  130.9350  177.7989 C.ar      1 UNK        -0.1150 
     25 C25       126.9761  131.2689  179.0583 C.ar      1 UNK        -0.1150 
     26 H26       125.8358  130.2696  183.2171 H         1 UNK         0.0300 
     27 H27       127.2821  129.4497  182.6401 H         1 UNK         0.0300 
     28 H28       125.6715  128.9326  182.0855 H         1 UNK         0.0300 
     29 H29       127.3113  128.2181  180.5796 H         1 UNK         0.1150 
     30 H30       128.2335  127.6455  178.3861 H         1 UNK         0.1150 
     31 H31       128.3503  128.2497  175.9431 H         1 UNK         0.0600 
     32 H32       127.9594  129.8497  175.4402 H         1 UNK         0.0600 
     33 H33       130.2374  130.5443  176.5909 H         1 UNK         0.0600 
     34 H34       130.6541  128.3083  177.7028 H         1 UNK         0.0600 
     35 H35       130.7459  127.5402  176.1238 H         1 UNK         0.0600 
     36 H36       131.9650  128.7100  176.6160 H         1 UNK         0.0600 
     37 H37       130.2520  129.0145  174.0622 H         1 UNK         0.3100 
     38 H38       132.2475  130.5908  175.2871 H         1 UNK         0.0600 
     39 H39       132.3050  129.6161  173.8405 H         1 UNK         0.0600 
     40 H40       131.0828  132.4148  174.0578 H         1 UNK         0.0600 
     41 H41       131.3579  130.7339  171.8088 H         1 UNK         0.4180 
     42 H42       133.1145  132.0343  171.1341 H         1 UNK         0.1150 
     43 H43       135.2930  133.1368  170.8515 H         1 UNK         0.1150 
     44 H44       137.1131  134.6496  173.4763 H         1 UNK         0.4350 
     45 H45       136.7837  133.8797  175.2382 H         1 UNK         0.3000 
     46 H46       136.1859  134.4526  177.2437 H         1 UNK         0.0000 
     47 H47       133.3308  132.6827  175.3849 H         1 UNK         0.1150 
     48 H48       127.5519  131.6876  177.0244 H         1 UNK         0.1150 
     49 H49       126.6229  132.2731  179.2412 H         1 UNK         0.1150 
     50 H50       129.7054  130.5237  174.2811 H         1 UNK         0.3100 
@<TRIPOS>BOND
     1    1    2 1    
     2    1   26 1    
     3    1   27 1    
     4    1   28 1    
     5    2    3 1    
     6    3   25 ar   
     7    3    4 ar   
     8    4    5 ar   
     9    4   29 1    
    10    5    6 ar   
    11    5   30 1    
    12    6    7 1    
    13    6   24 ar   
    14    7    8 1    
    15    7   31 1    
    16    7   32 1    
    17    8    9 1    
    18    8   10 1    
    19    8   33 1    
    20    9   34 1    
    21    9   35 1    
    22    9   36 1    
    23   10   11 1    
    24   10   37 1    
    25   10   50 1    
    26   11   12 1    
    27   11   38 1    
    28   11   39 1    
    29   12   13 1    
    30   12   14 1    
    31   12   40 1    
    32   13   41 1    
    33   14   23 ar   
    34   14   15 ar   
    35   15   16 ar   
    36   15   42 1    
    37   16   17 ar   
    38   16   43 1    
    39   17   18 1    
    40   17   19 ar   
    41   18   44 1    
    42   19   20 1    
    43   19   23 ar   
    44   20   21 am   BACKBONE|DICT|INTERRES
    45   20   45 1    
    46   21   22 2    
    47   21   46 1    
    48   23   47 1    
    49   24   25 ar   
    50   24   48 1    
    51   25   49 1    
@<TRIPOS>SUBSTRUCTURE
     1 UNK         1 GROUP             0       ****    0 ROOT    
@<TRIPOS>MOLECULE
Row589
41   42    1
SMALL
USER_CHARGES


@<TRIPOS>ATOM
      1 C1        129.8924  130.4891  176.8579 C.3       1 UNK        -0.1800 
      2 C2        130.1937  129.5515  175.6762 C.3       1 UNK         0.2300 
      3 C3        131.5226  128.7922  175.8401 C.3       1 UNK        -0.1800 
      4 N4        130.1141  130.2497  174.3726 N.4       1 UNK        -0.2000 
      5 C5        130.9912  131.4253  174.1760 C.3       1 UNK         0.1700 
      6 C6        131.5931  131.4144  172.7637 C.3       1 UNK         0.2050 
      7 O7        130.5579  131.4497  171.8112 O.3       1 UNK        -0.6830 
      8 C8        132.5332  132.5821  172.4675 C.3       1 UNK         0.1400 
      9 O9        133.5702  132.5187  173.4292 O.3       1 UNK        -0.2850 
     10 C10       134.7285  133.2118  173.1819 C.ar      1 UNK         0.0850 
     11 C11       135.3582  133.2215  171.9144 C.ar      1 UNK        -0.1150 
     12 C12       136.5872  133.8808  171.7379 C.ar      1 UNK        -0.1150 
     13 C13       137.1927  134.5505  172.8173 C.ar      1 UNK        -0.1150 
     14 C14       136.5675  134.5582  174.0800 C.ar      1 UNK         0.0000 
     15 C15       137.1545  135.2497  175.1560 C.ar      1 UNK        -0.1150 
     16 C16       136.5579  135.2242  176.4308 C.ar      1 UNK        -0.1150 
     17 C17       135.3601  134.5163  176.6325 C.ar      1 UNK        -0.1150 
     18 C18       134.7499  133.8497  175.5536 C.ar      1 UNK        -0.1150 
     19 C19       135.3446  133.8694  174.2705 C.ar      1 UNK         0.0000 
     20 H20       129.8363  129.9276  177.7911 H         1 UNK         0.0600 
     21 H21       128.9361  130.9965  176.7245 H         1 UNK         0.0600 
     22 H22       130.6615  131.2513  176.9850 H         1 UNK         0.0600 
     23 H23       129.4024  128.8007  175.6464 H         1 UNK         0.0600 
     24 H24       131.5111  128.1804  176.7431 H         1 UNK         0.0600 
     25 H25       131.6980  128.1210  174.9980 H         1 UNK         0.0600 
     26 H26       132.3785  129.4628  175.9159 H         1 UNK         0.0600 
     27 H27       130.3074  129.5623  173.6387 H         1 UNK         0.3100 
     28 H28       130.4150  132.3333  174.3533 H         1 UNK         0.0600 
     29 H29       131.8010  131.4244  174.9050 H         1 UNK         0.0600 
     30 H30       132.1579  130.4904  172.6400 H         1 UNK         0.0600 
     31 H31       130.7580  130.7573  171.1793 H         1 UNK         0.4180 
     32 H32       132.8839  132.4950  171.4404 H         1 UNK         0.0300 
     33 H33       132.0111  133.5350  172.5544 H         1 UNK         0.0300 
     34 H34       134.9431  132.6903  171.0720 H         1 UNK         0.1150 
     35 H35       137.0765  133.8614  170.7749 H         1 UNK         0.1150 
     36 H36       138.1388  135.0529  172.6696 H         1 UNK         0.1150 
     37 H37       138.0838  135.7844  175.0210 H         1 UNK         0.1150 
     38 H38       137.0297  135.7397  177.2546 H         1 UNK         0.1150 
     39 H39       134.9086  134.4886  177.6134 H         1 UNK         0.1150 
     40 H40       133.8252  133.3187  175.7244 H         1 UNK         0.1150 
     41 H41       129.1570  130.5613  174.2382 H         1 UNK         0.3100 
@<TRIPOS>BOND
     1    1    2 1    
     2    1   20 1    
     3    1   21 1    
     4    1   22 1    
     5    2    3 1    
     6    2    4 1    
     7    2   23 1    
     8    3   24 1    
     9    3   25 1    
    10    3   26 1    
    11    4    5 1    
    12    4   27 1    
    13    4   41 1    
    14    5    6 1    
    15    5   28 1    
    16    5   29 1    
    17    6    7 1    
    18    6    8 1    
    19    6   30 1    
    20    7   31 1    
    21    8    9 1    
    22    8   32 1    
    23    8   33 1    
    24    9   10 1    
    25   10   19 ar   
    26   10   11 ar   
    27   11   12 ar   
    28   11   34 1    
    29   12   13 ar   
    30   12   35 1    
    31   13   14 ar   
    32   13   36 1    
    33   14   19 ar   
    34   14   15 ar   
    35   15   16 ar   
    36   15   37 1    
    37   16   17 ar   
    38   16   38 1    
    39   17   18 ar   
    40   17   39 1    
    41   18   19 ar   
    42   18   40 1    
@<TRIPOS>SUBSTRUCTURE
     1 UNK         1 GROUP             0       ****    0 ROOT    
@<TRIPOS>MOLECULE
Row208
41   42    1
SMALL
USER_CHARGES


@<TRIPOS>ATOM
      1 C1        129.8924  130.4891  176.8579 C.3       1 UNK        -0.1800 
      2 C2        130.1937  129.5515  175.6762 C.3       1 UNK         0.2300 
      3 C3        131.5226  128.7922  175.8401 C.3       1 UNK        -0.1800 
      4 N4        130.1141  130.2497  174.3726 N.4       1 UNK        -0.2000 
      5 C5        130.9912  131.4253  174.1760 C.3       1 UNK         0.1700 
      6 C6        131.5931  131.4144  172.7637 C.3       1 UNK         0.2050 
      7 O7        130.5579  131.4497  171.8112 O.3       1 UNK        -0.6830 
      8 C8        132.5332  132.5821  172.4675 C.3       1 UNK         0.1400 
      9 O9        133.5702  132.5187  173.4292 O.3       1 UNK        -0.2850 
     10 C10       134.7285  133.2118  173.1819 C.ar      1 UNK         0.0850 
     11 C11       135.3582  133.2215  171.9144 C.ar      1 UNK        -0.1150 
     12 C12       136.5872  133.8808  171.7379 C.ar      1 UNK        -0.1150 
     13 C13       137.1927  134.5505  172.8173 C.ar      1 UNK        -0.1150 
     14 C14       136.5675  134.5582  174.0800 C.ar      1 UNK         0.0000 
     15 C15       137.1545  135.2497  175.1560 C.ar      1 UNK        -0.1150 
     16 C16       136.5579  135.2242  176.4308 C.ar      1 UNK        -0.1150 
     17 C17       135.3601  134.5163  176.6325 C.ar      1 UNK        -0.1150 
     18 C18       134.7499  133.8497  175.5536 C.ar      1 UNK        -0.1150 
     19 C19       135.3446  133.8694  174.2705 C.ar      1 UNK         0.0000 
     20 H20       129.8363  129.9276  177.7911 H         1 UNK         0.0600 
     21 H21       128.9361  130.9965  176.7245 H         1 UNK         0.0600 
     22 H22       130.6615  131.2513  176.9850 H         1 UNK         0.0600 
     23 H23       129.4024  128.8007  175.6464 H         1 UNK         0.0600 
     24 H24       131.5111  128.1804  176.7431 H         1 UNK         0.0600 
     25 H25       131.6980  128.1210  174.9980 H         1 UNK         0.0600 
     26 H26       132.3785  129.4628  175.9159 H         1 UNK         0.0600 
     27 H27       130.3074  129.5623  173.6387 H         1 UNK         0.3100 
     28 H28       130.4150  132.3333  174.3533 H         1 UNK         0.0600 
     29 H29       131.8010  131.4244  174.9050 H         1 UNK         0.0600 
     30 H30       132.1579  130.4904  172.6400 H         1 UNK         0.0600 
     31 H31       130.7580  130.7573  171.1793 H         1 UNK         0.4180 
     32 H32       132.8839  132.4950  171.4404 H         1 UNK         0.0300 
     33 H33       132.0111  133.5350  172.5544 H         1 UNK         0.0300 
     34 H34       134.9431  132.6903  171.0720 H         1 UNK         0.1150 
     35 H35       137.0765  133.8614  170.7749 H         1 UNK         0.1150 
     36 H36       138.1388  135.0529  172.6696 H         1 UNK         0.1150 
     37 H37       138.0838  135.7844  175.0210 H         1 UNK         0.1150 
     38 H38       137.0297  135.7397  177.2546 H         1 UNK         0.1150 
     39 H39       134.9086  134.4886  177.6134 H         1 UNK         0.1150 
     40 H40       133.8252  133.3187  175.7244 H         1 UNK         0.1150 
     41 H41       129.1570  130.5613  174.2382 H         1 UNK         0.3100 
@<TRIPOS>BOND
     1    1    2 1    
     2    1   20 1    
     3    1   21 1    
     4    1   22 1    
     5    2    3 1    
     6    2    4 1    
     7    2   23 1    
     8    3   24 1    
     9    3   25 1    
    10    3   26 1    
    11    4    5 1    
    12    4   27 1    
    13    4   41 1    
    14    5    6 1    
    15    5   28 1    
    16    5   29 1    
    17    6    7 1    
    18    6    8 1    
    19    6   30 1    
    20    7   31 1    
    21    8    9 1    
    22    8   32 1    
    23    8   33 1    
    24    9   10 1    
    25   10   19 ar   
    26   10   11 ar   
    27   11   12 ar   
    28   11   34 1    
    29   12   13 ar   
    30   12   35 1    
    31   13   14 ar   
    32   13   36 1    
    33   14   19 ar   
    34   14   15 ar   
    35   15   16 ar   
    36   15   37 1    
    37   16   17 ar   
    38   16   38 1    
    39   17   18 ar   
    40   17   39 1    
    41   18   19 ar   
    42   18   40 1    
@<TRIPOS>SUBSTRUCTURE
     1 UNK         1 GROUP             0       ****    0 ROOT    
@<TRIPOS>MOLECULE
Row628
41   42    1
SMALL
USER_CHARGES


@<TRIPOS>ATOM
      1 C1        129.8924  130.4891  176.8579 C.3       1 UNK        -0.1800 
      2 C2        130.1937  129.5515  175.6762 C.3       1 UNK         0.2300 
      3 C3        131.5226  128.7922  175.8401 C.3       1 UNK        -0.1800 
      4 N4        130.1141  130.2497  174.3726 N.4       1 UNK        -0.2000 
      5 C5        130.9912  131.4253  174.1760 C.3       1 UNK         0.1700 
      6 C6        131.5931  131.4144  172.7637 C.3       1 UNK         0.2050 
      7 O7        130.5579  131.4497  171.8112 O.3       1 UNK        -0.6830 
      8 C8        132.5332  132.5821  172.4675 C.3       1 UNK         0.1400 
      9 O9        133.5702  132.5187  173.4292 O.3       1 UNK        -0.2850 
     10 C10       134.7285  133.2118  173.1819 C.ar      1 UNK         0.0850 
     11 C11       135.3582  133.2215  171.9144 C.ar      1 UNK        -0.1150 
     12 C12       136.5872  133.8808  171.7379 C.ar      1 UNK        -0.1150 
     13 C13       137.1927  134.5505  172.8173 C.ar      1 UNK        -0.1150 
     14 C14       136.5675  134.5582  174.0800 C.ar      1 UNK         0.0000 
     15 C15       137.1545  135.2497  175.1560 C.ar      1 UNK        -0.1150 
     16 C16       136.5579  135.2242  176.4308 C.ar      1 UNK        -0.1150 
     17 C17       135.3601  134.5163  176.6325 C.ar      1 UNK        -0.1150 
     18 C18       134.7499  133.8497  175.5536 C.ar      1 UNK        -0.1150 
     19 C19       135.3446  133.8694  174.2705 C.ar      1 UNK         0.0000 
     20 H20       129.8363  129.9276  177.7911 H         1 UNK         0.0600 
     21 H21       128.9361  130.9965  176.7245 H         1 UNK         0.0600 
     22 H22       130.6615  131.2513  176.9850 H         1 UNK         0.0600 
     23 H23       129.4024  128.8007  175.6464 H         1 UNK         0.0600 
     24 H24       131.5111  128.1804  176.7431 H         1 UNK         0.0600 
     25 H25       131.6980  128.1210  174.9980 H         1 UNK         0.0600 
     26 H26       132.3785  129.4628  175.9159 H         1 UNK         0.0600 
     27 H27       130.3074  129.5623  173.6387 H         1 UNK         0.3100 
     28 H28       130.4150  132.3333  174.3533 H         1 UNK         0.0600 
     29 H29       131.8010  131.4244  174.9050 H         1 UNK         0.0600 
     30 H30       132.1579  130.4904  172.6400 H         1 UNK         0.0600 
     31 H31       130.7580  130.7573  171.1793 H         1 UNK         0.4180 
     32 H32       132.8839  132.4950  171.4404 H         1 UNK         0.0300 
     33 H33       132.0111  133.5350  172.5544 H         1 UNK         0.0300 
     34 H34       134.9431  132.6903  171.0720 H         1 UNK         0.1150 
     35 H35       137.0765  133.8614  170.7749 H         1 UNK         0.1150 
     36 H36       138.1388  135.0529  172.6696 H         1 UNK         0.1150 
     37 H37       138.0838  135.7844  175.0210 H         1 UNK         0.1150 
     38 H38       137.0297  135.7397  177.2546 H         1 UNK         0.1150 
     39 H39       134.9086  134.4886  177.6134 H         1 UNK         0.1150 
     40 H40       133.8252  133.3187  175.7244 H         1 UNK         0.1150 
     41 H41       129.1570  130.5613  174.2382 H         1 UNK         0.3100 
@<TRIPOS>BOND
     1    1    2 1    
     2    1   20 1    
     3    1   21 1    
     4    1   22 1    
     5    2    3 1    
     6    2    4 1    
     7    2   23 1    
     8    3   24 1    
     9    3   25 1    
    10    3   26 1    
    11    4    5 1    
    12    4   27 1    
    13    4   41 1    
    14    5    6 1    
    15    5   28 1    
    16    5   29 1    
    17    6    7 1    
    18    6    8 1    
    19    6   30 1    
    20    7   31 1    
    21    8    9 1    
    22    8   32 1    
    23    8   33 1    
    24    9   10 1    
    25   10   19 ar   
    26   10   11 ar   
    27   11   12 ar   
    28   11   34 1    
    29   12   13 ar   
    30   12   35 1    
    31   13   14 ar   
    32   13   36 1    
    33   14   19 ar   
    34   14   15 ar   
    35   15   16 ar   
    36   15   37 1    
    37   16   17 ar   
    38   16   38 1    
    39   17   18 ar   
    40   17   39 1    
    41   18   19 ar   
    42   18   40 1    
@<TRIPOS>SUBSTRUCTURE
     1 UNK         1 GROUP             0       ****    0 ROOT    
@<TRIPOS>MOLECULE
Row648
41   42    1
SMALL
USER_CHARGES


@<TRIPOS>ATOM
      1 C1        129.8924  130.4891  176.8579 C.3       1 UNK        -0.1800 
      2 C2        130.1937  129.5515  175.6762 C.3       1 UNK         0.2300 
      3 C3        131.5226  128.7922  175.8401 C.3       1 UNK        -0.1800 
      4 N4        130.1141  130.2497  174.3726 N.4       1 UNK        -0.2000 
      5 C5        130.9912  131.4253  174.1760 C.3       1 UNK         0.1700 
      6 C6        131.5931  131.4144  172.7637 C.3       1 UNK         0.2050 
      7 O7        130.5579  131.4497  171.8112 O.3       1 UNK        -0.6830 
      8 C8        132.5332  132.5821  172.4675 C.3       1 UNK         0.1400 
      9 O9        133.5702  132.5187  173.4292 O.3       1 UNK        -0.2850 
     10 C10       134.7285  133.2118  173.1819 C.ar      1 UNK         0.0850 
     11 C11       135.3582  133.2215  171.9144 C.ar      1 UNK        -0.1150 
     12 C12       136.5872  133.8808  171.7379 C.ar      1 UNK        -0.1150 
     13 C13       137.1927  134.5505  172.8173 C.ar      1 UNK        -0.1150 
     14 C14       136.5675  134.5582  174.0800 C.ar      1 UNK         0.0000 
     15 C15       137.1545  135.2497  175.1560 C.ar      1 UNK        -0.1150 
     16 C16       136.5579  135.2242  176.4308 C.ar      1 UNK        -0.1150 
     17 C17       135.3601  134.5163  176.6325 C.ar      1 UNK        -0.1150 
     18 C18       134.7499  133.8497  175.5536 C.ar      1 UNK        -0.1150 
     19 C19       135.3446  133.8694  174.2705 C.ar      1 UNK         0.0000 
     20 H20       129.8363  129.9276  177.7911 H         1 UNK         0.0600 
     21 H21       128.9361  130.9965  176.7245 H         1 UNK         0.0600 
     22 H22       130.6615  131.2513  176.9850 H         1 UNK         0.0600 
     23 H23       129.4024  128.8007  175.6464 H         1 UNK         0.0600 
     24 H24       131.5111  128.1804  176.7431 H         1 UNK         0.0600 
     25 H25       131.6980  128.1210  174.9980 H         1 UNK         0.0600 
     26 H26       132.3785  129.4628  175.9159 H         1 UNK         0.0600 
     27 H27       130.3074  129.5623  173.6387 H         1 UNK         0.3100 
     28 H28       130.4150  132.3333  174.3533 H         1 UNK         0.0600 
     29 H29       131.8010  131.4244  174.9050 H         1 UNK         0.0600 
     30 H30       132.1579  130.4904  172.6400 H         1 UNK         0.0600 
     31 H31       130.7580  130.7573  171.1793 H         1 UNK         0.4180 
     32 H32       132.8839  132.4950  171.4404 H         1 UNK         0.0300 
     33 H33       132.0111  133.5350  172.5544 H         1 UNK         0.0300 
     34 H34       134.9431  132.6903  171.0720 H         1 UNK         0.1150 
     35 H35       137.0765  133.8614  170.7749 H         1 UNK         0.1150 
     36 H36       138.1388  135.0529  172.6696 H         1 UNK         0.1150 
     37 H37       138.0838  135.7844  175.0210 H         1 UNK         0.1150 
     38 H38       137.0297  135.7397  177.2546 H         1 UNK         0.1150 
     39 H39       134.9086  134.4886  177.6134 H         1 UNK         0.1150 
     40 H40       133.8252  133.3187  175.7244 H         1 UNK         0.1150 
     41 H41       129.1570  130.5613  174.2382 H         1 UNK         0.3100 
@<TRIPOS>BOND
     1    1    2 1    
     2    1   20 1    
     3    1   21 1    
     4    1   22 1    
     5    2    3 1    
     6    2    4 1    
     7    2   23 1    
     8    3   24 1    
     9    3   25 1    
    10    3   26 1    
    11    4    5 1    
    12    4   27 1    
    13    4   41 1    
    14    5    6 1    
    15    5   28 1    
    16    5   29 1    
    17    6    7 1    
    18    6    8 1    
    19    6   30 1    
    20    7   31 1    
    21    8    9 1    
    22    8   32 1    
    23    8   33 1    
    24    9   10 1    
    25   10   19 ar   
    26   10   11 ar   
    27   11   12 ar   
    28   11   34 1    
    29   12   13 ar   
    30   12   35 1    
    31   13   14 ar   
    32   13   36 1    
    33   14   19 ar   
    34   14   15 ar   
    35   15   16 ar   
    36   15   37 1    
    37   16   17 ar   
    38   16   38 1    
    39   17   18 ar   
    40   17   39 1    
    41   18   19 ar   
    42   18   40 1    
@<TRIPOS>SUBSTRUCTURE
     1 UNK         1 GROUP             0       ****    0 ROOT    
@<TRIPOS>MOLECULE
Row623
47   48    1
SMALL
USER_CHARGES


@<TRIPOS>ATOM
      1 C1        128.6478  128.7339  175.4006 C.3       1 UNK        -0.1800 
      2 C2        129.8852  129.6277  175.5616 C.3       1 UNK         0.2900 
      3 C3        129.5871  130.6950  176.6358 C.3       1 UNK        -0.1800 
      4 C4        131.0767  128.7447  175.9913 C.3       1 UNK        -0.1800 
      5 N5        130.1586  130.2497  174.2438 N.4       1 UNK        -0.2000 
      6 C6        131.1537  131.3474  174.2068 C.3       1 UNK         0.1700 
      7 C7        131.9193  131.3586  172.8749 C.3       1 UNK         0.2050 
      8 H8        132.4551  130.4142  172.7738 H         1 UNK         0.0600 
      9 O9        130.9622  131.4499  171.8400 O.3       1 UNK        -0.6830 
     10 C10       132.9401  132.5102  172.7439 C.3       1 UNK         0.1400 
     11 O11       133.6435  132.6378  173.9751 O.3       1 UNK        -0.2850 
     12 C12       134.7553  133.4503  174.0604 C.ar      1 UNK         0.0850 
     13 C13       135.6323  133.7003  172.9779 C.ar      1 UNK        -0.1150 
     14 C14       136.8058  134.4551  173.1720 C.ar      1 UNK        -0.1150 
     15 C15       137.0933  134.9993  174.4377 C.ar      1 UNK        -0.1150 
     16 C16       136.2286  134.7637  175.5274 C.ar      1 UNK        -0.1150 
     17 C17       135.0582  133.9906  175.3346 C.ar      1 UNK        -0.1150 
     18 C18       134.1426  133.6571  176.5025 C.3       1 UNK        -0.0050 
     19 C19       134.3866  134.4704  177.7896 C.3       1 UNK        -0.1200 
     20 C20       135.8686  134.7095  178.0678 C.3       1 UNK        -0.1200 
     21 C21       136.5586  135.3343  176.8612 C.2       1 UNK         0.5850 
     22 O22       137.3576  136.2497  177.0399 O.2       1 UNK        -0.4700 
     23 H23       128.3959  128.2510  176.3444 H         1 UNK         0.0600 
     24 H24       128.8159  127.9542  174.6561 H         1 UNK         0.0600 
     25 H25       127.7778  129.3086  175.0800 H         1 UNK         0.0600 
     26 H26       130.4531  131.3177  176.8607 H         1 UNK         0.0600 
     27 H27       128.7747  131.3548  176.3279 H         1 UNK         0.0600 
     28 H28       129.2867  130.2295  177.5760 H         1 UNK         0.0600 
     29 H29       131.9821  129.3207  176.1747 H         1 UNK         0.0600 
     30 H30       130.8546  128.2116  176.9172 H         1 UNK         0.0600 
     31 H31       131.3113  127.9933  175.2347 H         1 UNK         0.0600 
     32 H32       130.4338  129.5110  173.5904 H         1 UNK         0.3100 
     33 H33       130.6384  132.2946  174.3679 H         1 UNK         0.0600 
     34 H34       131.8731  131.2350  175.0159 H         1 UNK         0.0600 
     35 H35       131.0989  130.6987  171.2599 H         1 UNK         0.4180 
     36 H36       133.5929  132.2900  171.9001 H         1 UNK         0.0300 
     37 H37       132.4320  133.4526  172.5387 H         1 UNK         0.0300 
     38 H38       135.4526  133.2874  171.9985 H         1 UNK         0.1150 
     39 H39       137.4845  134.6255  172.3476 H         1 UNK         0.1150 
     40 H40       137.9953  135.5794  174.5719 H         1 UNK         0.1150 
     41 H41       133.0968  133.7325  176.2402 H         1 UNK         0.0600 
     42 H42       134.3004  132.5953  176.6401 H         1 UNK         0.0600 
     43 H43       133.9031  135.4462  177.7159 H         1 UNK         0.0600 
     44 H44       133.9178  133.9805  178.6433 H         1 UNK         0.0600 
     45 H45       135.9937  135.3636  178.9310 H         1 UNK         0.0600 
     46 H46       136.3710  133.7751  178.3078 H         1 UNK         0.0600 
     47 H47       129.2800  130.6250  173.9006 H         1 UNK         0.3100 
@<TRIPOS>BOND
     1    1    2 1    
     2    1   23 1    
     3    1   24 1    
     4    1   25 1    
     5    2    3 1    
     6    2    4 1    
     7    2    5 1    
     8    3   26 1    
     9    3   27 1    
    10    3   28 1    
    11    4   29 1    
    12    4   30 1    
    13    4   31 1    
    14    5    6 1    
    15    5   32 1    
    16    5   47 1    
    17    6    7 1    
    18    6   33 1    
    19    6   34 1    
    20    7    8 1    
    21    7    9 1    
    22    7   10 1    
    23    9   35 1    
    24   10   11 1    
    25   10   36 1    
    26   10   37 1    
    27   11   12 1    
    28   12   17 ar   
    29   12   13 ar   
    30   13   14 ar   
    31   13   38 1    
    32   14   15 ar   
    33   14   39 1    
    34   15   16 ar   
    35   15   40 1    
    36   16   21 1    
    37   16   17 ar   
    38   17   18 1    
    39   18   19 1    
    40   18   41 1    
    41   18   42 1    
    42   19   20 1    
    43   19   43 1    
    44   19   44 1    
    45   20   21 1    
    46   20   45 1    
    47   20   46 1    
    48   21   22 2    
@<TRIPOS>SUBSTRUCTURE
     1 UNK         1 GROUP             0       ****    0 ROOT    
@<TRIPOS>MOLECULE
Row327
36   36    1
SMALL
USER_CHARGES


@<TRIPOS>ATOM
      1 C1        131.1648  127.9998  176.2190 C.3       1 UNK        -0.1800 
      2 C2        130.3486  129.2805  175.9623 C.3       1 UNK         0.2900 
      3 C3        128.8527  128.9391  175.9182 C.3       1 UNK        -0.1800 
      4 C4        130.5593  130.3081  177.0956 C.3       1 UNK        -0.1800 
      5 N5        130.6989  129.8503  174.6404 N.4       1 UNK        -0.2000 
      6 C6        132.0635  130.3884  174.4291 C.3       1 UNK         0.1700 
      7 C7        131.9942  131.7426  173.6964 C.3       1 UNK         0.3200 
      8 O8        131.3872  131.5775  172.4239 O.3       1 UNK        -0.6830 
      9 C9        133.3429  132.4608  173.6660 C.ar      1 UNK        -0.1150 
     10 C10       134.0745  132.6496  172.4731 C.ar      1 UNK        -0.1150 
     11 C11       135.3172  133.3153  172.4995 C.ar      1 UNK         0.1800 
     12 Cl12      136.2185  133.4524  171.0394 Cl        1 UNK        -0.1800 
     13 C13       135.8319  133.8342  173.7090 C.ar      1 UNK         0.1800 
     14 N14       137.0629  134.4969  173.7326 N.pl3     1 UNK        -0.9000 
     15 C15       135.0944  133.6631  174.8993 C.ar      1 UNK         0.1800 
     16 Cl16      135.6735  134.2917  176.4008 Cl        1 UNK        -0.1800 
     17 C17       133.8691  132.9713  174.8739 C.ar      1 UNK        -0.1150 
     18 H18       130.8853  127.5343  177.1653 H         1 UNK         0.0600 
     19 H19       132.2343  128.2025  176.2624 H         1 UNK         0.0600 
     20 H20       131.0022  127.2608  175.4328 H         1 UNK         0.0600 
     21 H21       128.2397  129.8303  175.7713 H         1 UNK         0.0600 
     22 H22       128.6244  128.2510  175.1021 H         1 UNK         0.0600 
     23 H23       128.5250  128.4693  176.8467 H         1 UNK         0.0600 
     24 H24       130.0601  131.2528  176.8779 H         1 UNK         0.0600 
     25 H25       130.1492  129.9362  178.0354 H         1 UNK         0.0600 
     26 H26       131.6100  130.5221  177.2881 H         1 UNK         0.0600 
     27 H27       130.5567  129.1364  173.9180 H         1 UNK         0.3100 
     28 H28       132.5914  130.5089  175.3722 H         1 UNK         0.0600 
     29 H29       132.6461  129.6664  173.8546 H         1 UNK         0.0600 
     30 H30       131.3196  132.3973  174.2475 H         1 UNK         0.0600 
     31 H31       131.7583  130.8329  171.9598 H         1 UNK         0.4180 
     32 H32       133.7032  132.2670  171.5333 H         1 UNK         0.1150 
     33 H33       137.5264  134.6591  174.6172 H         1 UNK         0.3600 
     34 H34       137.6742  134.4549  172.9271 H         1 UNK         0.3600 
     35 H35       133.3276  132.8410  175.7991 H         1 UNK         0.1150 
     36 H36       130.0402  130.5902  174.4420 H         1 UNK         0.3100 
@<TRIPOS>BOND
     1    1    2 1    
     2    1   18 1    
     3    1   19 1    
     4    1   20 1    
     5    2    3 1    
     6    2    4 1    
     7    2    5 1    
     8    3   21 1    
     9    3   22 1    
    10    3   23 1    
    11    4   24 1    
    12    4   25 1    
    13    4   26 1    
    14    5    6 1    
    15    5   27 1    
    16    5   36 1    
    17    6    7 1    
    18    6   28 1    
    19    6   29 1    
    20    7    8 1    
    21    7    9 1    
    22    7   30 1    
    23    8   31 1    
    24    9   17 ar   
    25    9   10 ar   
    26   10   11 ar   
    27   10   32 1    
    28   11   12 1    
    29   11   13 ar   
    30   13   14 1    
    31   13   15 ar   
    32   14   33 1    
    33   14   34 1    
    34   15   16 1    
    35   15   17 ar   
    36   17   35 1    
@<TRIPOS>SUBSTRUCTURE
     1 UNK         1 GROUP             0       ****    0 ROOT    
@<TRIPOS>MOLECULE
Row1
68   69    1
SMALL
USER_CHARGES


@<TRIPOS>ATOM
      1 O1        136.9574  135.2905  175.0953 O.3       1 UNK        -0.6333 
      2 C2        136.1625  134.1515  175.3775 C.3       1 UNK         0.1972 
      3 C3        135.3098  133.6515  174.2103 C.ar      1 UNK        -0.0779 
      4 C4        134.0640  133.0379  174.4774 C.ar      1 UNK        -0.1150 
      5 C5        133.2941  132.4581  173.4393 C.ar      1 UNK        -0.1150 
      6 C6        132.0070  131.6985  173.7649 C.3       1 UNK         0.3200 
      7 O7        131.1807  131.4498  172.6363 O.3       1 UNK        -0.6830 
      8 C8        132.3316  130.3855  174.5084 C.3       1 UNK         0.1700 
      9 N9        131.1955  129.4500  174.6461 N.4       1 UNK        -0.2000 
     10 C10       129.9613  129.9008  175.3265 C.3       1 UNK         0.1700 
     11 C11       129.9235  129.4896  176.8131 C.3       1 UNK        -0.1200 
     12 C12       128.4781  129.4384  177.3382 C.3       1 UNK        -0.1200 
     13 C13       128.3400  129.0311  178.8156 C.3       1 UNK        -0.1200 
     14 C14       126.8579  128.8331  179.1892 C.3       1 UNK        -0.1200 
     15 C15       126.5577  128.7394  180.6945 C.3       1 UNK         0.1400 
     16 O16       127.0948  129.8739  181.3588 O.3       1 UNK        -0.4000 
     17 C17       126.3391  130.2888  182.4893 C.3       1 UNK         0.1400 
     18 C18       127.0870  131.4051  183.2327 C.3       1 UNK        -0.1200 
     19 C19       127.3833  132.6293  182.3508 C.3       1 UNK        -0.1200 
     20 C20       128.2701  133.6886  183.0314 C.3       1 UNK        -0.0050 
     21 C21       127.4953  134.6996  183.8580 C.ar      1 UNK        -0.1150 
     22 C22       127.1862  135.9634  183.3145 C.ar      1 UNK        -0.1150 
     23 C23       126.4948  136.9188  184.0822 C.ar      1 UNK        -0.1150 
     24 C24       126.1024  136.6118  185.3998 C.ar      1 UNK        -0.1150 
     25 C25       126.4022  135.3486  185.9460 C.ar      1 UNK        -0.1150 
     26 C26       127.0969  134.3933  185.1762 C.ar      1 UNK        -0.1150 
     27 C27       133.7687  132.5336  172.1129 C.ar      1 UNK        -0.1150 
     28 C28       134.9959  133.1571  171.8354 C.ar      1 UNK        -0.1150 
     29 C29       135.7677  133.7071  172.8724 C.ar      1 UNK         0.1500 
     30 O30       136.9646  134.2724  172.5543 O.3       1 UNK        -0.5850 
     31 H31       137.6014  135.3850  175.7864 H         1 UNK         0.4180 
     32 H32       135.5255  134.3791  176.2326 H         1 UNK         0.0480 
     33 H33       136.8235  133.3404  175.6833 H         1 UNK         0.0480 
     34 H34       133.7151  132.9662  175.4977 H         1 UNK         0.1150 
     35 H35       131.4178  132.3371  174.4195 H         1 UNK         0.0600 
     36 H36       131.5861  130.8157  172.0527 H         1 UNK         0.4180 
     37 H37       133.1013  129.8443  173.9560 H         1 UNK         0.0600 
     38 H38       132.7453  130.5968  175.4970 H         1 UNK         0.0600 
     39 H39       130.9117  129.1386  173.7085 H         1 UNK         0.3100 
     40 H40       129.7726  130.9679  175.1998 H         1 UNK         0.0600 
     41 H41       129.1470  129.3966  174.8046 H         1 UNK         0.0600 
     42 H42       130.3797  128.5045  176.9430 H         1 UNK         0.0600 
     43 H43       130.5150  130.1911  177.4092 H         1 UNK         0.0600 
     44 H44       128.0130  130.4131  177.1928 H         1 UNK         0.0600 
     45 H45       127.9078  128.7386  176.7281 H         1 UNK         0.0600 
     46 H46       128.8934  128.1122  179.0139 H         1 UNK         0.0600 
     47 H47       128.7868  129.8078  179.4370 H         1 UNK         0.0600 
     48 H48       126.2765  129.6616  178.7825 H         1 UNK         0.0600 
     49 H49       126.4932  127.9260  178.6981 H         1 UNK         0.0600 
     50 H50       125.4736  128.6912  180.8182 H         1 UNK         0.0300 
     51 H51       126.9581  127.8272  181.1343 H         1 UNK         0.0300 
     52 H52       125.3589  130.6362  182.1629 H         1 UNK         0.0300 
     53 H53       126.1714  129.4495  183.1644 H         1 UNK         0.0300 
     54 H54       126.4912  131.7064  184.0938 H         1 UNK         0.0600 
     55 H55       128.0196  131.0082  183.6304 H         1 UNK         0.0600 
     56 H56       127.9162  132.2794  181.4658 H         1 UNK         0.0600 
     57 H57       126.4512  133.0624  181.9855 H         1 UNK         0.0600 
     58 H58       129.0239  133.2054  183.6545 H         1 UNK         0.0600 
     59 H59       128.8247  134.2363  182.2677 H         1 UNK         0.0600 
     60 H60       127.4852  136.2130  182.3077 H         1 UNK         0.1150 
     61 H61       126.2672  137.8891  183.6644 H         1 UNK         0.1150 
     62 H62       125.5733  137.3481  185.9882 H         1 UNK         0.1150 
     63 H63       126.0981  135.1114  186.9553 H         1 UNK         0.1150 
     64 H64       127.3255  133.4266  185.6000 H         1 UNK         0.1150 
     65 H65       133.2170  132.0953  171.2949 H         1 UNK         0.1150 
     66 H66       135.3573  133.1927  170.8188 H         1 UNK         0.1150 
     67 H67       137.3306  134.7162  173.3117 H         1 UNK         0.4350 
     68 H68       131.5177  128.6196  175.1187 H         1 UNK         0.3100 
@<TRIPOS>BOND
     1    1    2 1    
     2    1   31 1    
     3    2    3 1    
     4    2   32 1    
     5    2   33 1    
     6    3   29 ar   
     7    3    4 ar   
     8    4    5 ar   
     9    4   34 1    
    10    5    6 1    
    11    5   27 ar   
    12    6    7 1    
    13    6    8 1    
    14    6   35 1    
    15    7   36 1    
    16    8    9 1    
    17    8   37 1    
    18    8   38 1    
    19    9   10 1    
    20    9   39 1    
    21    9   68 1    
    22   10   11 1    
    23   10   40 1    
    24   10   41 1    
    25   11   12 1    
    26   11   42 1    
    27   11   43 1    
    28   12   13 1    
    29   12   44 1    
    30   12   45 1    
    31   13   14 1    
    32   13   46 1    
    33   13   47 1    
    34   14   15 1    
    35   14   48 1    
    36   14   49 1    
    37   15   16 1    
    38   15   50 1    
    39   15   51 1    
    40   16   17 1    
    41   17   18 1    
    42   17   52 1    
    43   17   53 1    
    44   18   19 1    
    45   18   54 1    
    46   18   55 1    
    47   19   20 1    
    48   19   56 1    
    49   19   57 1    
    50   20   21 1    
    51   20   58 1    
    52   20   59 1    
    53   21   26 ar   
    54   21   22 ar   
    55   22   23 ar   
    56   22   60 1    
    57   23   24 ar   
    58   23   61 1    
    59   24   25 ar   
    60   24   62 1    
    61   25   26 ar   
    62   25   63 1    
    63   26   64 1    
    64   27   28 ar   
    65   27   65 1    
    66   28   29 ar   
    67   28   66 1    
    68   29   30 1    
    69   30   67 1    
@<TRIPOS>SUBSTRUCTURE
     1 UNK         1 GROUP             0       ****    0 ROOT    
@<TRIPOS>MOLECULE
Row96
68   69    1
SMALL
USER_CHARGES


@<TRIPOS>ATOM
      1 O1        136.9574  135.2905  175.0953 O.3       1 UNK        -0.6333 
      2 C2        136.1625  134.1515  175.3775 C.3       1 UNK         0.1972 
      3 C3        135.3098  133.6515  174.2103 C.ar      1 UNK        -0.0779 
      4 C4        134.0640  133.0379  174.4774 C.ar      1 UNK        -0.1150 
      5 C5        133.2941  132.4581  173.4393 C.ar      1 UNK        -0.1150 
      6 C6        132.0070  131.6985  173.7649 C.3       1 UNK         0.3200 
      7 O7        131.1807  131.4498  172.6363 O.3       1 UNK        -0.6830 
      8 C8        132.3316  130.3855  174.5084 C.3       1 UNK         0.1700 
      9 N9        131.1955  129.4500  174.6461 N.4       1 UNK        -0.2000 
     10 C10       129.9613  129.9008  175.3265 C.3       1 UNK         0.1700 
     11 C11       129.9235  129.4896  176.8131 C.3       1 UNK        -0.1200 
     12 C12       128.4781  129.4384  177.3382 C.3       1 UNK        -0.1200 
     13 C13       128.3400  129.0311  178.8156 C.3       1 UNK        -0.1200 
     14 C14       126.8579  128.8331  179.1892 C.3       1 UNK        -0.1200 
     15 C15       126.5577  128.7394  180.6945 C.3       1 UNK         0.1400 
     16 O16       127.0948  129.8739  181.3588 O.3       1 UNK        -0.4000 
     17 C17       126.3391  130.2888  182.4893 C.3       1 UNK         0.1400 
     18 C18       127.0870  131.4051  183.2327 C.3       1 UNK        -0.1200 
     19 C19       127.3833  132.6293  182.3508 C.3       1 UNK        -0.1200 
     20 C20       128.2701  133.6886  183.0314 C.3       1 UNK        -0.0050 
     21 C21       127.4953  134.6996  183.8580 C.ar      1 UNK        -0.1150 
     22 C22       127.1862  135.9634  183.3145 C.ar      1 UNK        -0.1150 
     23 C23       126.4948  136.9188  184.0822 C.ar      1 UNK        -0.1150 
     24 C24       126.1024  136.6118  185.3998 C.ar      1 UNK        -0.1150 
     25 C25       126.4022  135.3486  185.9460 C.ar      1 UNK        -0.1150 
     26 C26       127.0969  134.3933  185.1762 C.ar      1 UNK        -0.1150 
     27 C27       133.7687  132.5336  172.1129 C.ar      1 UNK        -0.1150 
     28 C28       134.9959  133.1571  171.8354 C.ar      1 UNK        -0.1150 
     29 C29       135.7677  133.7071  172.8724 C.ar      1 UNK         0.1500 
     30 O30       136.9646  134.2724  172.5543 O.3       1 UNK        -0.5850 
     31 H31       137.6014  135.3850  175.7864 H         1 UNK         0.4180 
     32 H32       135.5255  134.3791  176.2326 H         1 UNK         0.0480 
     33 H33       136.8235  133.3404  175.6833 H         1 UNK         0.0480 
     34 H34       133.7151  132.9662  175.4977 H         1 UNK         0.1150 
     35 H35       131.4178  132.3371  174.4195 H         1 UNK         0.0600 
     36 H36       131.5861  130.8157  172.0527 H         1 UNK         0.4180 
     37 H37       133.1013  129.8443  173.9560 H         1 UNK         0.0600 
     38 H38       132.7453  130.5968  175.4970 H         1 UNK         0.0600 
     39 H39       130.9117  129.1386  173.7085 H         1 UNK         0.3100 
     40 H40       129.7726  130.9679  175.1998 H         1 UNK         0.0600 
     41 H41       129.1470  129.3966  174.8046 H         1 UNK         0.0600 
     42 H42       130.3797  128.5045  176.9430 H         1 UNK         0.0600 
     43 H43       130.5150  130.1911  177.4092 H         1 UNK         0.0600 
     44 H44       128.0130  130.4131  177.1928 H         1 UNK         0.0600 
     45 H45       127.9078  128.7386  176.7281 H         1 UNK         0.0600 
     46 H46       128.8934  128.1122  179.0139 H         1 UNK         0.0600 
     47 H47       128.7868  129.8078  179.4370 H         1 UNK         0.0600 
     48 H48       126.2765  129.6616  178.7825 H         1 UNK         0.0600 
     49 H49       126.4932  127.9260  178.6981 H         1 UNK         0.0600 
     50 H50       125.4736  128.6912  180.8182 H         1 UNK         0.0300 
     51 H51       126.9581  127.8272  181.1343 H         1 UNK         0.0300 
     52 H52       125.3589  130.6362  182.1629 H         1 UNK         0.0300 
     53 H53       126.1714  129.4495  183.1644 H         1 UNK         0.0300 
     54 H54       126.4912  131.7064  184.0938 H         1 UNK         0.0600 
     55 H55       128.0196  131.0082  183.6304 H         1 UNK         0.0600 
     56 H56       127.9162  132.2794  181.4658 H         1 UNK         0.0600 
     57 H57       126.4512  133.0624  181.9855 H         1 UNK         0.0600 
     58 H58       129.0239  133.2054  183.6545 H         1 UNK         0.0600 
     59 H59       128.8247  134.2363  182.2677 H         1 UNK         0.0600 
     60 H60       127.4852  136.2130  182.3077 H         1 UNK         0.1150 
     61 H61       126.2672  137.8891  183.6644 H         1 UNK         0.1150 
     62 H62       125.5733  137.3481  185.9882 H         1 UNK         0.1150 
     63 H63       126.0981  135.1114  186.9553 H         1 UNK         0.1150 
     64 H64       127.3255  133.4266  185.6000 H         1 UNK         0.1150 
     65 H65       133.2170  132.0953  171.2949 H         1 UNK         0.1150 
     66 H66       135.3573  133.1927  170.8188 H         1 UNK         0.1150 
     67 H67       137.3306  134.7162  173.3117 H         1 UNK         0.4350 
     68 H68       131.5177  128.6196  175.1187 H         1 UNK         0.3100 
@<TRIPOS>BOND
     1    1    2 1    
     2    1   31 1    
     3    2    3 1    
     4    2   32 1    
     5    2   33 1    
     6    3   29 ar   
     7    3    4 ar   
     8    4    5 ar   
     9    4   34 1    
    10    5    6 1    
    11    5   27 ar   
    12    6    7 1    
    13    6    8 1    
    14    6   35 1    
    15    7   36 1    
    16    8    9 1    
    17    8   37 1    
    18    8   38 1    
    19    9   10 1    
    20    9   39 1    
    21    9   68 1    
    22   10   11 1    
    23   10   40 1    
    24   10   41 1    
    25   11   12 1    
    26   11   42 1    
    27   11   43 1    
    28   12   13 1    
    29   12   44 1    
    30   12   45 1    
    31   13   14 1    
    32   13   46 1    
    33   13   47 1    
    34   14   15 1    
    35   14   48 1    
    36   14   49 1    
    37   15   16 1    
    38   15   50 1    
    39   15   51 1    
    40   16   17 1    
    41   17   18 1    
    42   17   52 1    
    43   17   53 1    
    44   18   19 1    
    45   18   54 1    
    46   18   55 1    
    47   19   20 1    
    48   19   56 1    
    49   19   57 1    
    50   20   21 1    
    51   20   58 1    
    52   20   59 1    
    53   21   26 ar   
    54   21   22 ar   
    55   22   23 ar   
    56   22   60 1    
    57   23   24 ar   
    58   23   61 1    
    59   24   25 ar   
    60   24   62 1    
    61   25   26 ar   
    62   25   63 1    
    63   26   64 1    
    64   27   28 ar   
    65   27   65 1    
    66   28   29 ar   
    67   28   66 1    
    68   29   30 1    
    69   30   67 1    
@<TRIPOS>SUBSTRUCTURE
     1 UNK         1 GROUP             0       ****    0 ROOT    
