5185930
                    3D
 Schrodinger Suite 2023-1.
 35 36  0  0  1  0            999 V2000
   88.1692  105.9804   75.4530 O   0  0  0  0  0  0
   88.9813  106.6388   74.7514 C   0  0  0  0  0  0
   90.1408  106.9716   75.0908 O   0  5  0  0  0  0
   88.5127  107.0567   73.3558 C   0  0  2  0  0  0
   89.5584  107.1116   72.2508 C   0  0  1  0  0  0
   89.2007  106.5805   70.8725 C   0  0  0  0  0  0
   90.2856  105.6986   70.2311 C   0  0  0  0  0  0
   91.6356  106.3855   70.1009 C   0  0  0  0  0  0
   91.9783  107.3195   69.1948 C   0  0  0  0  0  0
   91.0766  107.9075   68.1239 C   0  0  0  0  0  0
   90.8876  109.4281   68.2669 C   0  0  0  0  0  0
   90.4277  109.8448   69.6517 C   0  0  0  0  0  0
   89.1504  110.0837   69.9880 C   0  0  0  0  0  0
   88.6851  110.4696   71.3766 C   0  0  0  0  0  0
   88.0021  109.3151   72.1303 C   0  0  0  0  0  0
   88.9849  108.3919   72.8341 C   0  0  1  0  0  0
   87.5071  106.7466   73.0833 H   0  0  0  0  0  0
   90.5846  106.9020   72.5480 H   0  0  0  0  0  0
   88.2755  106.0068   70.9453 H   0  0  0  0  0  0
   88.9758  107.4158   70.2135 H   0  0  0  0  0  0
   90.4204  104.7905   70.8192 H   0  0  0  0  0  0
   89.9564  105.3711   69.2446 H   0  0  0  0  0  0
   92.3745  106.0891   70.8317 H   0  0  0  0  0  0
   92.9785  107.7235   69.2312 H   0  0  0  0  0  0
   91.5137  107.6854   67.1504 H   0  0  0  0  0  0
   90.1028  107.4197   68.1351 H   0  0  0  0  0  0
   91.8203  109.9487   68.0467 H   0  0  0  0  0  0
   90.1612  109.7700   67.5289 H   0  0  0  0  0  0
   91.1963  109.9152   70.4089 H   0  0  0  0  0  0
   88.3771  109.9749   69.2430 H   0  0  0  0  0  0
   89.5212  110.8613   71.9585 H   0  0  0  0  0  0
   87.9830  111.2964   71.2618 H   0  0  0  0  0  0
   87.3557  109.7379   72.8996 H   0  0  0  0  0  0
   87.3507  108.7445   71.4685 H   0  0  0  0  0  0
   89.6644  108.9387   73.4870 H   0  0  0  0  0  0
  1  2  2  0  0  0
  2  3  1  0  0  0
  2  4  1  0  0  0
  4 16  1  0  0  0
  4  5  1  0  0  0
  4 17  1  0  0  0
  5 16  1  0  0  0
  5  6  1  0  0  0
  5 18  1  0  0  0
  6  7  1  0  0  0
  6 19  1  0  0  0
  6 20  1  0  0  0
  7  8  1  0  0  0
  7 21  1  0  0  0
  7 22  1  0  0  0
  8  9  2  3  0  0
  8 23  1  0  0  0
  9 10  1  0  0  0
  9 24  1  0  0  0
 10 11  1  0  0  0
 10 25  1  0  0  0
 10 26  1  0  0  0
 11 12  1  0  0  0
 11 27  1  0  0  0
 11 28  1  0  0  0
 12 13  2  3  0  0
 12 29  1  0  0  0
 13 14  1  0  0  0
 13 30  1  0  0  0
 14 15  1  0  0  0
 14 31  1  0  0  0
 14 32  1  0  0  0
 15 16  1  0  0  0
 15 33  1  0  0  0
 15 34  1  0  0  0
 16 35  1  0  0  0
M  CHG  1   3  -1
M  END
> <s_m_entry_id>
90027

> <r_epik_Ionization_Penalty>
  0.0036

> <r_epik_State_Penalty>
  0.0036

> <i_epik_Tot_Q>
-1

> <s_m_Source_Path>
C:\Users\liyang\OneDrive - GHDDI\Desktop\lpro_docking_result

> <s_m_Source_File>
glide-dock-lpro-p1_pv.maegz

> <i_m_Source_File_Index>
4

> <i_f3d_flags>
0

> <r_i_docking_score>
-7.92734035365598

> <r_i_glide_gscore>
-7.93094035365598

> <r_i_glide_emodel>
-114.924005415932

> <i_m_Molecular_charge>
-1

> <s_m_subgroup_title>
glide-dock-lpro-p1_pv

> <s_m_subgroupid>
glide-dock-lpro-p1_pv

> <b_m_subgroup_collapsed>
0

$$$$
BTB15020
                    3D
 Schrodinger Suite 2023-1.
 23 24  0  0  1  0            999 V2000
   94.5373  104.2238   63.0477 O   0  0  0  0  0  0
   93.4200  104.6747   63.3849 C   0  0  0  0  0  0
   92.3856  103.9842   63.4533 O   0  5  0  0  0  0
   93.2708  106.1622   63.7059 C   0  0  2  0  0  0
   92.1034  106.8406   62.9481 C   0  0  2  0  0  0
   92.1876  106.5285   61.4395 C   0  0  0  0  0  0
   93.4380  107.3136   61.0016 C   0  0  0  0  0  0
   93.8644  108.0290   62.3003 C   0  0  1  0  0  0
   92.5193  108.3087   62.9670 C   0  0  0  0  0  0
   94.4975  107.0086   63.2785 C   0  0  1  0  0  0
   95.1316  107.7122   64.4928 C   0  0  0  0  0  0
   94.5967  107.5844   65.6315 O   0  0  0  0  0  0
   96.1578  108.3835   64.2504 O   0  5  0  0  0  0
   93.0775  106.2180   64.7729 H   0  0  0  0  0  0
   91.1274  106.6337   63.3889 H   0  0  0  0  0  0
   92.2657  105.4628   61.2276 H   0  0  0  0  0  0
   91.3018  106.8877   60.9211 H   0  0  0  0  0  0
   93.1802  108.0304   60.2229 H   0  0  0  0  0  0
   94.2250  106.6652   60.6129 H   0  0  0  0  0  0
   94.4843  108.9099   62.1269 H   0  0  0  0  0  0
   92.6102  108.7213   63.9744 H   0  0  0  0  0  0
   91.8718  108.9510   62.3728 H   0  0  0  0  0  0
   95.2696  106.4247   62.7747 H   0  0  0  0  0  0
  1  2  2  0  0  0
  2  3  1  0  0  0
  2  4  1  0  0  0
  4 10  1  0  0  0
  4  5  1  0  0  0
  4 14  1  0  0  0
  5  9  1  0  0  0
  5  6  1  0  0  0
  5 15  1  0  0  0
  6  7  1  0  0  0
  6 16  1  0  0  0
  6 17  1  0  0  0
  7  8  1  0  0  0
  7 18  1  0  0  0
  7 19  1  0  0  0
  8  9  1  0  0  0
  8 10  1  0  0  0
  8 20  1  0  0  0
  9 21  1  0  0  0
  9 22  1  0  0  0
 10 11  1  0  0  0
 10 23  1  0  0  0
 11 12  2  0  0  0
 11 13  1  0  0  0
M  CHG  2   3  -1  13  -1
M  END
> <s_m_entry_id>
90034

> <r_lp_tautomer_probability>
1

> <r_epik_Ionization_Penalty>
  0.0029

> <r_epik_State_Penalty>
  0.0000

> <i_epik_Tot_Q>
-2

> <s_m_Source_Path>
C:\Users\liyang\OneDrive - GHDDI\Desktop\lpro_docking_result

> <s_m_Source_File>
glide-dock-lpro-p1_pv.maegz

> <i_m_Source_File_Index>
11

> <i_f3d_flags>
0

> <r_i_docking_score>
-7.84887378745358

> <r_i_glide_gscore>
-7.84887378745358

> <r_i_glide_emodel>
-127.095428121054

> <i_m_Molecular_charge>
-2

> <s_m_subgroup_title>
glide-dock-lpro-p1_pv

> <s_m_subgroupid>
glide-dock-lpro-p1_pv

> <b_m_subgroup_collapsed>
0

$$$$
CBR-001-574-374-5
                    3D
 Schrodinger Suite 2023-1.
 31 33  0  0  1  0            999 V2000
   89.7646  109.9813   74.4084 N   0  0  0  0  0  0
   89.8692  109.8612   73.2608 C   0  0  0  0  0  0
   90.0023  109.7114   71.8175 C   0  0  0  0  0  0
   90.9619  110.4612   71.1061 C   0  0  0  0  0  0
   91.1046  110.3045   69.7127 C   0  0  0  0  0  0
   90.2818  109.3940   69.0126 C   0  0  0  0  0  0
   90.4585  109.1677   67.5137 C   0  0  2  0  0  0
   91.6242  108.1852   67.2426 C   0  0  0  0  0  0
   92.1681  108.2599   65.8037 C   0  0  0  0  0  0
   92.6303  109.6881   65.4632 C   0  0  0  0  0  0
   91.5696  110.6827   65.8018 C   0  0  0  0  0  0
   91.3207  111.9532   65.3492 C   0  0  0  0  0  0
   90.1931  112.3855   65.9832 N   0  3  0  0  0  0
   89.7681  111.4695   66.8493 C   0  0  0  0  0  0
   90.6100  110.4268   66.7532 N   0  0  0  0  0  0
   89.3262  108.6401   69.7276 C   0  0  0  0  0  0
   89.1812  108.8016   71.1209 C   0  0  0  0  0  0
   91.6084  111.1528   71.6253 H   0  0  0  0  0  0
   91.8584  110.8780   69.1900 H   0  0  0  0  0  0
   89.5444  108.7146   67.1258 H   0  0  0  0  0  0
   92.4513  108.4098   67.9171 H   0  0  0  0  0  0
   91.3156  107.1654   67.4788 H   0  0  0  0  0  0
   92.9903  107.5558   65.6703 H   0  0  0  0  0  0
   91.3821  107.9530   65.1124 H   0  0  0  0  0  0
   93.5276  109.9437   66.0279 H   0  0  0  0  0  0
   92.8801  109.7685   64.4040 H   0  0  0  0  0  0
   91.8455  112.5787   64.6450 H   0  0  0  0  0  0
   88.9259  111.5784   67.5050 H   0  0  0  0  0  0
   88.7096  107.9205   69.2119 H   0  0  0  0  0  0
   88.4509  108.2126   71.6579 H   0  0  0  0  0  0
   89.7616  113.3043   65.8526 H   0  0  0  0  0  0
  1  2  3  0  0  0
  2  3  1  0  0  0
  3 17  1  0  0  0
  3  4  2  0  0  0
  4  5  1  0  0  0
  4 18  1  0  0  0
  5  6  2  0  0  0
  5 19  1  0  0  0
  6  7  1  0  0  0
  6 16  1  0  0  0
  7 15  1  0  0  0
  7  8  1  0  0  0
  7 20  1  0  0  0
  8  9  1  0  0  0
  8 21  1  0  0  0
  8 22  1  0  0  0
  9 10  1  0  0  0
  9 23  1  0  0  0
  9 24  1  0  0  0
 10 11  1  0  0  0
 10 25  1  0  0  0
 10 26  1  0  0  0
 11 15  1  0  0  0
 11 12  2  0  0  0
 12 13  1  0  0  0
 12 27  1  0  0  0
 13 14  2  0  0  0
 13 31  1  0  0  0
 14 15  1  0  0  0
 14 28  1  0  0  0
 16 17  2  0  0  0
 16 29  1  0  0  0
 17 30  1  0  0  0
M  CHG  1  13   1
M  END
> <s_m_entry_id>
90113

> <r_lp_tautomer_probability>
1

> <r_epik_Ionization_Penalty>
  0.1709

> <r_epik_State_Penalty>
  0.1709

> <i_epik_Tot_Q>
1

> <s_m_Source_Path>
C:\Users\liyang\OneDrive - GHDDI\Desktop\lpro_docking_result

> <s_m_Source_File>
glide-dock-lpro-p1_pv.maegz

> <i_m_Source_File_Index>
90

> <i_f3d_flags>
0

> <r_i_docking_score>
-7.42423736484613

> <r_i_glide_gscore>
-7.59513736484613

> <r_i_glide_emodel>
-79.6870077304714

> <i_m_Molecular_charge>
1

> <s_m_subgroup_title>
glide-dock-lpro-p1_pv

> <s_m_subgroupid>
glide-dock-lpro-p1_pv

> <b_m_subgroup_collapsed>
0

$$$$
