@<TRIPOS>MOLECULE
5185930
35   36    1
SMALL
USER_CHARGES


@<TRIPOS>ATOM
      1 O1         88.1692  105.9804   75.4530 O.co2     1 UNK        -0.8000 
      2 C2         88.9813  106.6388   74.7514 C.2       1 UNK         0.6000 
      3 O3         90.1408  106.9716   75.0908 O.co2     1 UNK        -0.8000 
      4 C4         88.5127  107.0567   73.3558 C.3       1 UNK        -0.0600 
      5 C5         89.5584  107.1116   72.2508 C.3       1 UNK        -0.0600 
      6 C6         89.2007  106.5805   70.8725 C.3       1 UNK        -0.1200 
      7 C7         90.2856  105.6986   70.2311 C.3       1 UNK        -0.1200 
      8 C8         91.6356  106.3855   70.1009 C.2       1 UNK        -0.1150 
      9 C9         91.9783  107.3195   69.1948 C.2       1 UNK        -0.1150 
     10 C10        91.0766  107.9075   68.1239 C.3       1 UNK        -0.1200 
     11 C11        90.8876  109.4281   68.2669 C.3       1 UNK        -0.1200 
     12 C12        90.4277  109.8448   69.6517 C.2       1 UNK        -0.1150 
     13 C13        89.1504  110.0837   69.9880 C.2       1 UNK        -0.1150 
     14 C14        88.6851  110.4696   71.3766 C.3       1 UNK        -0.1200 
     15 C15        88.0021  109.3151   72.1303 C.3       1 UNK        -0.1200 
     16 C16        88.9849  108.3919   72.8341 C.3       1 UNK        -0.0600 
     17 H17        87.5071  106.7466   73.0833 H         1 UNK         0.0600 
     18 H18        90.5846  106.9020   72.5480 H         1 UNK         0.0600 
     19 H19        88.2755  106.0068   70.9453 H         1 UNK         0.0600 
     20 H20        88.9758  107.4158   70.2135 H         1 UNK         0.0600 
     21 H21        90.4204  104.7905   70.8192 H         1 UNK         0.0600 
     22 H22        89.9564  105.3711   69.2446 H         1 UNK         0.0600 
     23 H23        92.3745  106.0891   70.8317 H         1 UNK         0.1150 
     24 H24        92.9785  107.7235   69.2312 H         1 UNK         0.1150 
     25 H25        91.5137  107.6854   67.1504 H         1 UNK         0.0600 
     26 H26        90.1028  107.4197   68.1351 H         1 UNK         0.0600 
     27 H27        91.8203  109.9487   68.0467 H         1 UNK         0.0600 
     28 H28        90.1612  109.7700   67.5289 H         1 UNK         0.0600 
     29 H29        91.1963  109.9152   70.4089 H         1 UNK         0.1150 
     30 H30        88.3771  109.9749   69.2430 H         1 UNK         0.1150 
     31 H31        89.5212  110.8613   71.9585 H         1 UNK         0.0600 
     32 H32        87.9830  111.2964   71.2618 H         1 UNK         0.0600 
     33 H33        87.3557  109.7379   72.8996 H         1 UNK         0.0600 
     34 H34        87.3507  108.7445   71.4685 H         1 UNK         0.0600 
     35 H35        89.6644  108.9387   73.4870 H         1 UNK         0.0600 
@<TRIPOS>BOND
     1    1    2 2    
     2    2    3 1    
     3    2    4 1    
     4    4   16 1    
     5    4    5 1    
     6    4   17 1    
     7    5   16 1    
     8    5    6 1    
     9    5   18 1    
    10    6    7 1    
    11    6   19 1    
    12    6   20 1    
    13    7    8 1    
    14    7   21 1    
    15    7   22 1    
    16    8    9 2    
    17    8   23 1    
    18    9   10 1    
    19    9   24 1    
    20   10   11 1    
    21   10   25 1    
    22   10   26 1    
    23   11   12 1    
    24   11   27 1    
    25   11   28 1    
    26   12   13 2    
    27   12   29 1    
    28   13   14 1    
    29   13   30 1    
    30   14   15 1    
    31   14   31 1    
    32   14   32 1    
    33   15   16 1    
    34   15   33 1    
    35   15   34 1    
    36   16   35 1    
@<TRIPOS>SUBSTRUCTURE
     1 UNK         1 GROUP             0       ****    0 ROOT    
@<TRIPOS>MOLECULE
BTB15020
23   24    1
SMALL
USER_CHARGES


@<TRIPOS>ATOM
      1 O1         94.5373  104.2238   63.0477 O.co2     1 UNK        -0.8000 
      2 C2         93.4200  104.6747   63.3849 C.2       1 UNK         0.7000 
      3 O3         92.3856  103.9842   63.4533 O.co2     1 UNK        -0.8000 
      4 C4         93.2708  106.1622   63.7059 C.3       1 UNK        -0.1600 
      5 C5         92.1034  106.8406   62.9481 C.3       1 UNK        -0.0600 
      6 C6         92.1876  106.5285   61.4395 C.3       1 UNK        -0.1200 
      7 C7         93.4380  107.3136   61.0016 C.3       1 UNK        -0.1200 
      8 C8         93.8644  108.0290   62.3003 C.3       1 UNK        -0.0600 
      9 C9         92.5193  108.3087   62.9670 C.3       1 UNK        -0.1200 
     10 C10        94.4975  107.0086   63.2785 C.3       1 UNK        -0.1600 
     11 C11        95.1316  107.7122   64.4928 C.2       1 UNK         0.7000 
     12 O12        94.5967  107.5844   65.6315 O.co2     1 UNK        -0.8000 
     13 O13        96.1578  108.3835   64.2504 O.co2     1 UNK        -0.8000 
     14 H14        93.0775  106.2180   64.7729 H         1 UNK         0.0600 
     15 H15        91.1274  106.6337   63.3889 H         1 UNK         0.0600 
     16 H16        92.2657  105.4628   61.2276 H         1 UNK         0.0600 
     17 H17        91.3018  106.8877   60.9211 H         1 UNK         0.0600 
     18 H18        93.1802  108.0304   60.2229 H         1 UNK         0.0600 
     19 H19        94.2250  106.6652   60.6129 H         1 UNK         0.0600 
     20 H20        94.4843  108.9099   62.1269 H         1 UNK         0.0600 
     21 H21        92.6102  108.7213   63.9744 H         1 UNK         0.0600 
     22 H22        91.8718  108.9510   62.3728 H         1 UNK         0.0600 
     23 H23        95.2696  106.4247   62.7747 H         1 UNK         0.0600 
@<TRIPOS>BOND
     1    1    2 2    
     2    2    3 1    
     3    2    4 1    
     4    4   10 1    
     5    4    5 1    
     6    4   14 1    
     7    5    9 1    
     8    5    6 1    
     9    5   15 1    
    10    6    7 1    
    11    6   16 1    
    12    6   17 1    
    13    7    8 1    
    14    7   18 1    
    15    7   19 1    
    16    8    9 1    
    17    8   10 1    
    18    8   20 1    
    19    9   21 1    
    20    9   22 1    
    21   10   11 1    
    22   10   23 1    
    23   11   12 2    
    24   11   13 1    
@<TRIPOS>SUBSTRUCTURE
     1 UNK         1 GROUP             0       ****    0 ROOT    
@<TRIPOS>MOLECULE
CBR-001-574-374-5
31   33    1
SMALL
USER_CHARGES


@<TRIPOS>ATOM
      1 N1         89.7646  109.9813   74.4084 N.1       1 UNK        -0.4300 
      2 C2         89.8692  109.8612   73.2608 C.1       1 UNK         0.3950 
      3 C3         90.0023  109.7114   71.8175 C.ar      1 UNK         0.0350 
      4 C4         90.9619  110.4612   71.1061 C.ar      1 UNK        -0.1150 
      5 C5         91.1046  110.3045   69.7127 C.ar      1 UNK        -0.1150 
      6 C6         90.2818  109.3940   69.0126 C.ar      1 UNK        -0.1150 
      7 C7         90.4585  109.1677   67.5137 C.3       1 UNK         0.1775 
      8 C8         91.6242  108.1852   67.2426 C.3       1 UNK        -0.1200 
      9 C9         92.1681  108.2599   65.8037 C.3       1 UNK        -0.1200 
     10 C10        92.6303  109.6881   65.4632 C.3       1 UNK        -0.0050 
     11 C11        91.5696  110.6827   65.8018 C.ar      1 UNK        -0.0311 
     12 C12        91.3207  111.9532   65.3492 C.ar      1 UNK         0.0554 
     13 N13        90.1931  112.3855   65.9832 N.pl3     1 UNK        -0.2324 
     14 C14        89.7681  111.4695   66.8493 C.ar      1 UNK         0.1001 
     15 N15        90.6100  110.4268   66.7532 N.pl3     1 UNK         0.0709 
     16 C16        89.3262  108.6401   69.7276 C.ar      1 UNK        -0.1150 
     17 C17        89.1812  108.8016   71.1209 C.ar      1 UNK        -0.1150 
     18 H18        91.6084  111.1528   71.6253 H         1 UNK         0.1150 
     19 H19        91.8584  110.8780   69.1900 H         1 UNK         0.1150 
     20 H20        89.5444  108.7146   67.1258 H         1 UNK         0.0600 
     21 H21        92.4513  108.4098   67.9171 H         1 UNK         0.0600 
     22 H22        91.3156  107.1654   67.4788 H         1 UNK         0.0600 
     23 H23        92.9903  107.5558   65.6703 H         1 UNK         0.0600 
     24 H24        91.3821  107.9530   65.1124 H         1 UNK         0.0600 
     25 H25        93.5276  109.9437   66.0279 H         1 UNK         0.0600 
     26 H26        92.8801  109.7685   64.4040 H         1 UNK         0.0600 
     27 H27        91.8455  112.5787   64.6450 H         1 UNK         0.1822 
     28 H28        88.9259  111.5784   67.5050 H         1 UNK         0.2377 
     29 H29        88.7096  107.9205   69.2119 H         1 UNK         0.1150 
     30 H30        88.4509  108.2126   71.6579 H         1 UNK         0.1150 
     31 H31        89.7616  113.3043   65.8526 H         1 UNK         0.3797 
@<TRIPOS>BOND
     1    1    2 3    
     2    2    3 1    
     3    3   17 ar   
     4    3    4 ar   
     5    4    5 ar   
     6    4   18 1    
     7    5    6 ar   
     8    5   19 1    
     9    6    7 1    
    10    6   16 ar   
    11    7   15 1    
    12    7    8 1    
    13    7   20 1    
    14    8    9 1    
    15    8   21 1    
    16    8   22 1    
    17    9   10 1    
    18    9   23 1    
    19    9   24 1    
    20   10   11 1    
    21   10   25 1    
    22   10   26 1    
    23   11   15 ar   
    24   11   12 ar   
    25   12   13 ar   
    26   12   27 1    
    27   13   14 ar   
    28   13   31 1    
    29   14   15 ar   
    30   14   28 1    
    31   16   17 ar   
    32   16   29 1    
    33   17   30 1    
@<TRIPOS>SUBSTRUCTURE
     1 UNK         1 GROUP             0       ****    0 ROOT    
